@<TRIPOS>MOLECULE
3R8
117   119    1
SMALL
USER_CHARGES


@<TRIPOS>ATOM
      1 CA         17.4230  -23.3595  -47.3545 C.3       0 UNK        -0.2013 
      2 C          17.5274  -24.3877  -46.2380 C.2       0 UNK         0.4866 
      3 O          18.4602  -24.3285  -45.4372 O.2       0 UNK        -0.5176 
      4 N          16.5828  -25.3341  -46.1850 N.am      1 UNK        -0.4884 
      5 CA         16.5014  -26.3763  -45.1556 C.3       1 UNK         0.0853 
      6 C6         15.5739  -27.5364  -45.5941 C.3       10 UNK        -0.0849 
      7 S7         16.1570  -28.3532  -47.1172 S.3       10 UNK        -0.2776 
      8 C8         16.4752  -30.0505  -46.5377 C.3       10 UNK         0.0316 
      9 C9         17.6433  -30.1323  -45.5634 C.ar      10 UNK        -0.0863 
     10 C10        17.4461  -30.5997  -44.2603 C.ar      10 UNK        -0.1009 
     11 C11        18.5284  -30.7394  -43.3864 C.ar      10 UNK        -0.0712 
     12 C12        19.8122  -30.3908  -43.8152 C.ar      10 UNK        -0.0894 
     13 C13        20.0210  -29.9209  -45.1149 C.ar      10 UNK        -0.0745 
     14 C14        18.9330  -29.7929  -45.9828 C.ar      10 UNK        -0.0972 
     15 C15        21.4233  -29.5978  -45.6063 C.3       10 UNK         0.0209 
     16 S16        21.7938  -27.8204  -45.4881 S.3       10 UNK        -0.2568 
     17 C17        22.2425  -27.6377  -43.7313 C.3       10 UNK        -0.0983 
     18 CA         21.3004  -26.6695  -42.9741 C.3       3 UNK         0.0876 
     19 N          19.9241  -27.1674  -42.9158 N.am      3 UNK        -0.4424 
     20 C          18.8766  -26.4608  -42.4760 C.2       2 UNK         0.4918 
     21 O          18.9435  -25.2902  -42.0948 O.2       2 UNK        -0.4875 
     22 CA         17.5296  -27.1980  -42.4216 C.3       2 UNK         0.0481 
     23 CB         17.3488  -27.8529  -41.0433 C.3       2 UNK        -0.1831 
     24 N          16.4242  -26.2655  -42.6496 N.am      2 UNK        -0.4498 
     25 C          15.9910  -25.7776  -43.8213 C.2       1 UNK         0.5027 
     26 O          15.1344  -24.8920  -43.8596 O.2       1 UNK        -0.4969 
     27 C          21.8378  -26.4047  -41.5534 C.2       3 UNK         0.5005 
     28 O          22.0904  -27.3605  -40.8164 O.2       3 UNK        -0.5279 
     29 N          22.0303  -25.1243  -41.2026 N.am      4 UNK        -0.4463 
     30 CA         22.5137  -24.6666  -39.8914 C.3       4 UNK         0.0283 
     31 CB         22.4479  -23.1320  -39.8345 C.3       4 UNK        -0.1875 
     32 C          23.9288  -25.1563  -39.5291 C.2       4 UNK         0.4949 
     33 O          24.2560  -25.2417  -38.3458 O.2       4 UNK        -0.5039 
     34 N          24.7279  -25.4969  -40.5490 N.am      5 UNK        -0.4663 
     35 CA         26.0470  -26.1201  -40.4203 C.3       5 UNK         0.0242 
     36 CB         26.8051  -25.9339  -41.7464 C.3       5 UNK        -0.1982 
     37 C          25.9973  -27.6136  -40.0356 C.2       5 UNK         0.5017 
     38 O          27.0571  -28.1874  -39.7829 O.2       5 UNK        -0.5012 
     39 N          24.7974  -28.2209  -40.0233 N.am      6 UNK        -0.4439 
     40 CA         24.5244  -29.6447  -39.7878 C.3       6 UNK         0.0297 
     41 CB         24.9061  -30.0628  -38.3516 C.3       6 UNK        -0.2006 
     42 C          25.1466  -30.5454  -40.8722 C.2       6 UNK         0.4892 
     43 O          25.7064  -31.5989  -40.5637 O.2       6 UNK        -0.5089 
     44 N          25.0312  -30.1028  -42.1334 N.am      7 UNK        -0.4243 
     45 CA         25.5219  -30.8034  -43.3255 C.3       7 UNK         0.0196 
     46 CB         25.5053  -29.8324  -44.5178 C.3       7 UNK        -0.2007 
     47 C          24.7391  -32.0890  -43.6576 C.2       7 UNK         0.5020 
     48 O          25.2540  -32.9371  -44.3865 O.2       7 UNK        -0.5147 
     49 N          23.5252  -32.2178  -43.1139 N.am      8 UNK        -0.4734 
     50 CA         22.6762  -33.4026  -43.1581 C.3       8 UNK         0.0238 
     51 CB         21.8865  -33.4481  -44.4811 C.3       8 UNK        -0.1912 
     52 C          21.7568  -33.3735  -41.9277 C.2       8 UNK         0.5038 
     53 O          21.7676  -32.3889  -41.1819 O.2       8 UNK        -0.5046 
     54 N          20.9837  -34.4510  -41.7473 N.am      9 UNK        -0.4200 
     55 CA         20.0449  -34.6838  -40.6317 C.3       9 UNK         0.0839 
     56 C          20.7275  -35.0584  -39.2811 C.2       9 UNK         0.5513 
     57 N          22.0175  -35.3715  -39.2526 N.am      9 UNK        -0.7519 
     58 O          20.0717  -35.0975  -38.2429 O.2       9 UNK        -0.4960 
     59 C59        18.9621  -33.5763  -40.4514 C.3       10 UNK        -0.0876 
     60 S60        18.1332  -33.0995  -42.0092 S.3       10 UNK        -0.2414 
     61 C61        18.3175  -31.2874  -41.9852 C.3       10 UNK         0.0169 
     62 H62        18.3183  -23.3875  -47.9750 H         1 UNK         0.0903 
     63 H63        16.5604  -23.5394  -47.9959 H         1 UNK         0.0903 
     64 H64        17.3304  -22.3583  -46.9344 H         1 UNK         0.0903 
     65 H65        15.8328  -25.3316  -46.8614 H         1 UNK         0.3096 
     66 H66        17.5110  -26.7693  -45.0316 H         1 UNK         0.1121 
     67 H67        14.5596  -27.1730  -45.7714 H         1 UNK         0.0849 
     68 H68        15.4894  -28.2792  -44.7984 H         1 UNK         0.0849 
     69 H69        15.5639  -30.4553  -46.0945 H         1 UNK         0.0865 
     70 H70        16.6954  -30.6793  -47.4015 H         1 UNK         0.0865 
     71 H71        16.4556  -30.8819  -43.9296 H         1 UNK         0.1346 
     72 H72        20.6523  -30.5151  -43.1450 H         1 UNK         0.1412 
     73 H73        19.0914  -29.4414  -46.9936 H         1 UNK         0.1426 
     74 H74        21.5192  -29.9024  -46.6496 H         1 UNK         0.0716 
     75 H75        22.1687  -30.1763  -45.0589 H         1 UNK         0.0716 
     76 H76        23.2692  -27.2670  -43.7044 H         1 UNK         0.0695 
     77 H77        22.2631  -28.6158  -43.2476 H         1 UNK         0.0695 
     78 H78        21.2837  -25.7230  -43.5198 H         1 UNK         0.0983 
     79 H79        19.7880  -28.1216  -43.2176 H         1 UNK         0.3095 
     80 H80        17.5118  -27.9869  -43.1731 H         1 UNK         0.0454 
     81 H81        18.1711  -28.5338  -40.8207 H         1 UNK         0.0851 
     82 H82        17.3208  -27.1120  -40.2431 H         1 UNK         0.0851 
     83 H83        16.4263  -28.4318  -40.9970 H         1 UNK         0.0851 
     84 H84        16.0560  -25.8364  -41.8135 H         1 UNK         0.2976 
     85 H85        21.7695  -24.4013  -41.8590 H         1 UNK         0.3116 
     86 H86        21.8331  -25.0651  -39.1360 H         1 UNK         0.0646 
     87 H87        23.0897  -22.6711  -40.5864 H         1 UNK         0.0847 
     88 H88        22.7722  -22.7631  -38.8603 H         1 UNK         0.0847 
     89 H89        21.4312  -22.7709  -39.9914 H         1 UNK         0.0847 
     90 H90        24.3773  -25.3663  -41.4865 H         1 UNK         0.3040 
     91 H91        26.5989  -25.6038  -39.6315 H         1 UNK         0.1015 
     92 H92        26.3047  -26.4396  -42.5733 H         1 UNK         0.0786 
     93 H93        27.8155  -26.3403  -41.6810 H         1 UNK         0.0786 
     94 H94        26.9011  -24.8791  -42.0047 H         1 UNK         0.0786 
     95 H95        23.9749  -27.6645  -40.2409 H         1 UNK         0.3172 
     96 H96        23.4438  -29.7637  -39.8831 H         1 UNK         0.0595 
     97 H97        24.5721  -31.0797  -38.1420 H         1 UNK         0.0839 
     98 H98        24.4413  -29.4109  -37.6121 H         1 UNK         0.0839 
     99 H99        25.9843  -30.0380  -38.1918 H         1 UNK         0.0839 
    100 H100       24.5708  -29.2182  -42.2840 H         1 UNK         0.2998 
    101 H101       26.5572  -31.0970  -43.1386 H         1 UNK         0.0822 
    102 H102       26.1272  -28.9576  -44.3264 H         1 UNK         0.0787 
    103 H103       25.8935  -30.3124  -45.4172 H         1 UNK         0.0787 
    104 H104       24.4976  -29.4849  -44.7451 H         1 UNK         0.0787 
    105 H105       23.2044  -31.5166  -42.4574 H         1 UNK         0.3055 
    106 H106       23.3077  -34.2907  -43.0809 H         1 UNK         0.1106 
    107 H107       21.2982  -34.3625  -44.5607 H         1 UNK         0.0828 
    108 H108       21.1953  -32.6126  -44.5714 H         1 UNK         0.0828 
    109 H109       22.5525  -33.4225  -45.3436 H         1 UNK         0.0828 
    110 H110       21.0474  -35.2074  -42.4128 H         1 UNK         0.2931 
    111 H111       19.5099  -35.5895  -40.9196 H         1 UNK         0.0412 
    112 H112       22.5682  -35.3572  -40.0955 H         1 UNK         0.3472 
    113 H113       22.4445  -35.6228  -38.3746 H         1 UNK         0.3472 
    114 H114       19.4021  -32.7015  -39.9715 H         1 UNK         0.0970 
    115 H115       18.1867  -33.9226  -39.7659 H         1 UNK         0.0970 
    116 H116       17.4239  -30.8478  -41.5408 H         1 UNK         0.0612 
    117 H117       19.1550  -30.9926  -41.3517 H         1 UNK         0.0612 
@<TRIPOS>BOND
     1    1    2 1    
     2    1   62 1    
     3    1   63 1    
     4    1   64 1    
     5    2    3 2    
     6    2    4 am   BACKBONE|DICT|INTERRES
     7    4    5 1    
     8    4   65 1    
     9    5    6 1    
    10    5   25 1    
    11    5   66 1    
    12    6    7 1    
    13    6   67 1    
    14    6   68 1    
    15    7    8 1    
    16    8    9 1    
    17    8   69 1    
    18    8   70 1    
    19    9   10 ar   
    20    9   14 ar   
    21   10   11 ar   
    22   10   71 1    
    23   11   12 ar   
    24   11   61 1    
    25   12   13 ar   
    26   12   72 1    
    27   13   14 ar   
    28   13   15 1    
    29   14   73 1    
    30   15   16 1    
    31   15   74 1    
    32   15   75 1    
    33   16   17 1    
    34   17   18 1    
    35   17   76 1    
    36   17   77 1    
    37   18   19 1    
    38   18   27 1    
    39   18   78 1    
    40   19   20 am   BACKBONE|DICT|INTERRES
    41   19   79 1    
    42   20   21 2    
    43   20   22 1    
    44   22   23 1    
    45   22   24 1    
    46   22   80 1    
    47   23   81 1    
    48   23   82 1    
    49   23   83 1    
    50   24   25 am   BACKBONE|DICT|INTERRES
    51   24   84 1    
    52   25   26 2    
    53   27   28 2    
    54   27   29 am   BACKBONE|DICT|INTERRES
    55   29   30 1    
    56   29   85 1    
    57   30   31 1    
    58   30   32 1    
    59   30   86 1    
    60   31   87 1    
    61   31   88 1    
    62   31   89 1    
    63   32   33 2    
    64   32   34 am   BACKBONE|DICT|INTERRES
    65   34   35 1    
    66   34   90 1    
    67   35   36 1    
    68   35   37 1    
    69   35   91 1    
    70   36   92 1    
    71   36   93 1    
    72   36   94 1    
    73   37   38 2    
    74   37   39 am   BACKBONE|DICT|INTERRES
    75   39   40 1    
    76   39   95 1    
    77   40   41 1    
    78   40   42 1    
    79   40   96 1    
    80   41   97 1    
    81   41   98 1    
    82   41   99 1    
    83   42   43 2    
    84   42   44 am   BACKBONE|DICT|INTERRES
    85   44   45 1    
    86   44  100 1    
    87   45   46 1    
    88   45   47 1    
    89   45  101 1    
    90   46  102 1    
    91   46  103 1    
    92   46  104 1    
    93   47   48 2    
    94   47   49 am   BACKBONE|DICT|INTERRES
    95   49   50 1    
    96   49  105 1    
    97   50   51 1    
    98   50   52 1    
    99   50  106 1    
   100   51  107 1    
   101   51  108 1    
   102   51  109 1    
   103   52   53 2    
   104   52   54 am   BACKBONE|DICT|INTERRES
   105   54   55 1    
   106   54  110 1    
   107   55   56 1    
   108   55   59 1    
   109   55  111 1    
   110   56   57 am   BACKBONE|DICT|INTERRES
   111   56   58 2    
   112   57  112 1    
   113   57  113 1    
   114   59   60 1    
   115   59  114 1    
   116   59  115 1    
   117   60   61 1    
   118   61  116 1    
   119   61  117 1    
@<TRIPOS>SUBSTRUCTURE
     1 UNK         1 GROUP             0       ****    0 ROOT    
