@<TRIPOS>MOLECULE
3R8
117   119    1
SMALL
USER_CHARGES


@<TRIPOS>ATOM
      1 CA         16.8291  -26.9263  -47.4228 C.3       0 UNK        -0.2013 
      2 C          16.6498  -25.4821  -46.9654 C.2       0 UNK         0.4866 
      3 O          16.2588  -24.6401  -47.7712 O.2       0 UNK        -0.5176 
      4 N          16.9244  -25.1343  -45.7012 N.am      1 UNK        -0.4884 
      5 CA         17.4183  -25.9964  -44.6179 C.3       1 UNK         0.0853 
      6 C6         16.3636  -26.1946  -43.4946 C.3       10 UNK        -0.0849 
      7 S7         14.9757  -27.2402  -44.0551 S.3       10 UNK        -0.2776 
      8 C8         15.0885  -28.6867  -42.9388 C.3       10 UNK         0.0316 
      9 C9         16.4396  -29.4020  -42.9535 C.ar      10 UNK        -0.0863 
     10 C10        16.9871  -29.8688  -41.7535 C.ar      10 UNK        -0.1009 
     11 C11        18.2211  -30.5270  -41.7382 C.ar      10 UNK        -0.0712 
     12 C12        18.9242  -30.6979  -42.9338 C.ar      10 UNK        -0.0894 
     13 C13        18.3774  -30.2624  -44.1426 C.ar      10 UNK        -0.0745 
     14 C14        17.1308  -29.6300  -44.1481 C.ar      10 UNK        -0.0972 
     15 C15        19.1129  -30.4947  -45.4510 C.3       10 UNK         0.0209 
     16 S16        19.9614  -28.9876  -46.0107 S.3       10 UNK        -0.2568 
     17 C17        21.6518  -29.1862  -45.3327 C.3       10 UNK        -0.0983 
     18 CA         22.1406  -28.0381  -44.4021 C.3       3 UNK         0.0876 
     19 N          21.5699  -26.7440  -44.7769 N.am      3 UNK        -0.4424 
     20 C          21.8801  -25.5425  -44.2766 C.2       2 UNK         0.4918 
     21 O          22.8010  -25.3474  -43.4845 O.2       2 UNK        -0.4875 
     22 CA         20.9409  -24.3839  -44.6706 C.3       2 UNK         0.0481 
     23 CB         21.5039  -23.6259  -45.8820 C.3       2 UNK        -0.1831 
     24 N          19.5644  -24.8216  -44.9594 N.am      2 UNK        -0.4498 
     25 C          18.7650  -25.4631  -44.0896 C.2       1 UNK         0.5027 
     26 O          19.0952  -25.6832  -42.9253 O.2       1 UNK        -0.4969 
     27 C          21.9896  -28.3883  -42.9042 C.2       3 UNK         0.5005 
     28 O          22.7964  -29.1745  -42.4061 O.2       3 UNK        -0.5279 
     29 N          21.0299  -27.7798  -42.1875 N.am      4 UNK        -0.4463 
     30 CA         20.8844  -27.9205  -40.7356 C.3       4 UNK         0.0283 
     31 CB         19.5344  -27.3478  -40.2780 C.3       4 UNK        -0.1875 
     32 C          22.0337  -27.2678  -39.9514 C.2       4 UNK         0.4949 
     33 O          22.4156  -27.7947  -38.9076 O.2       4 UNK        -0.5039 
     34 N          22.5977  -26.1680  -40.4754 N.am      5 UNK        -0.4663 
     35 CA         23.7649  -25.4929  -39.8945 C.3       5 UNK         0.0242 
     36 CB         23.8980  -24.0813  -40.4875 C.3       5 UNK        -0.1982 
     37 C          25.0628  -26.2944  -40.0946 C.2       5 UNK         0.5017 
     38 O          25.9556  -26.2240  -39.2502 O.2       5 UNK        -0.5012 
     39 N          25.1245  -27.0667  -41.1882 N.am      6 UNK        -0.4439 
     40 CA         26.1885  -28.0311  -41.4796 C.3       6 UNK         0.0297 
     41 CB         26.2380  -28.2694  -42.9988 C.3       6 UNK        -0.2006 
     42 C          26.0091  -29.3694  -40.7340 C.2       6 UNK         0.4892 
     43 O          26.9275  -30.1892  -40.7605 O.2       6 UNK        -0.5089 
     44 N          24.8347  -29.5750  -40.1152 N.am      7 UNK        -0.4243 
     45 CA         24.3595  -30.7989  -39.4584 C.3       7 UNK         0.0196 
     46 CB         25.2195  -31.1401  -38.2232 C.3       7 UNK        -0.2007 
     47 C          24.2039  -31.9864  -40.4298 C.2       7 UNK         0.5020 
     48 O          24.2983  -33.1417  -40.0121 O.2       7 UNK        -0.5147 
     49 N          23.9309  -31.6952  -41.7080 N.am      8 UNK        -0.4734 
     50 CA         23.7495  -32.6721  -42.7827 C.3       8 UNK         0.0238 
     51 CB         24.2917  -32.0709  -44.0928 C.3       8 UNK        -0.1912 
     52 C          22.2745  -33.1011  -42.8773 C.2       8 UNK         0.5038 
     53 O          21.6586  -32.9808  -43.9372 O.2       8 UNK        -0.5046 
     54 N          21.7314  -33.5636  -41.7452 N.am      9 UNK        -0.4200 
     55 CA         20.3328  -33.9866  -41.5745 C.3       9 UNK         0.0839 
     56 C          20.0461  -35.4593  -41.9899 C.2       9 UNK         0.5513 
     57 N          21.0404  -36.2453  -42.3859 N.am      9 UNK        -0.7519 
     58 O          18.8990  -35.8965  -41.9608 O.2       9 UNK        -0.4960 
     59 C59        19.8329  -33.6593  -40.1358 C.3       10 UNK        -0.0876 
     60 S60        18.2415  -32.7673  -40.1237 S.3       10 UNK        -0.2414 
     61 C61        18.7881  -31.0567  -40.4302 C.3       10 UNK         0.0169 
     62 H62        17.8759  -27.2226  -47.3716 H         1 UNK         0.0903 
     63 H63        16.2352  -27.6057  -46.8131 H         1 UNK         0.0903 
     64 H64        16.5028  -27.0429  -48.4560 H         1 UNK         0.0903 
     65 H65        16.7919  -24.1666  -45.4388 H         1 UNK         0.3096 
     66 H66        17.6743  -26.9845  -44.9985 H         1 UNK         0.1121 
     67 H67        15.9706  -25.2326  -43.1618 H         1 UNK         0.0849 
     68 H68        16.8031  -26.6588  -42.6099 H         1 UNK         0.0849 
     69 H69        14.3148  -29.4031  -43.2172 H         1 UNK         0.0865 
     70 H70        14.8469  -28.3539  -41.9282 H         1 UNK         0.0865 
     71 H71        16.4496  -29.7280  -40.8256 H         1 UNK         0.1346 
     72 H72        19.8884  -31.1854  -42.9278 H         1 UNK         0.1412 
     73 H73        16.7041  -29.3056  -45.0866 H         1 UNK         0.1426 
     74 H74        18.3949  -30.7915  -46.2168 H         1 UNK         0.0716 
     75 H75        19.8168  -31.3240  -45.3655 H         1 UNK         0.0716 
     76 H76        22.3183  -29.2405  -46.1947 H         1 UNK         0.0695 
     77 H77        21.7419  -30.1602  -44.8491 H         1 UNK         0.0695 
     78 H78        23.2176  -27.9419  -44.5548 H         1 UNK         0.0983 
     79 H79        20.7989  -26.8034  -45.4264 H         1 UNK         0.3095 
     80 H80        20.8987  -23.6952  -43.8245 H         1 UNK         0.0454 
     81 H81        21.5487  -24.2567  -46.7706 H         1 UNK         0.0851 
     82 H82        22.5163  -23.2713  -45.6833 H         1 UNK         0.0851 
     83 H83        20.8985  -22.7512  -46.1202 H         1 UNK         0.0851 
     84 H84        19.2199  -24.6625  -45.8960 H         1 UNK         0.2976 
     85 H85        20.3992  -27.1251  -42.6402 H         1 UNK         0.3116 
     86 H86        20.8985  -28.9858  -40.5050 H         1 UNK         0.0646 
     87 H87        18.7079  -27.7560  -40.8581 H         1 UNK         0.0847 
     88 H88        19.5023  -26.2619  -40.3732 H         1 UNK         0.0847 
     89 H89        19.3472  -27.5865  -39.2305 H         1 UNK         0.0847 
     90 H90        22.2562  -25.8110  -41.3596 H         1 UNK         0.3040 
     91 H91        23.6025  -25.3947  -38.8184 H         1 UNK         0.1015 
     92 H92        24.7133  -23.5361  -40.0100 H         1 UNK         0.0786 
     93 H93        22.9884  -23.4993  -40.3382 H         1 UNK         0.0786 
     94 H94        24.1097  -24.1067  -41.5568 H         1 UNK         0.0786 
     95 H95        24.3411  -27.0445  -41.8259 H         1 UNK         0.3172 
     96 H96        27.1452  -27.6056  -41.1694 H         1 UNK         0.0595 
     97 H97        25.3283  -28.7465  -43.3644 H         1 UNK         0.0839 
     98 H98        27.0715  -28.9219  -43.2627 H         1 UNK         0.0839 
     99 H99        26.3739  -27.3361  -43.5457 H         1 UNK         0.0839 
    100 H100       24.1511  -28.8320  -40.1689 H         1 UNK         0.2998 
    101 H101       23.3527  -30.5727  -39.1037 H         1 UNK         0.0822 
    102 H102       25.3078  -30.2845  -37.5538 H         1 UNK         0.0787 
    103 H103       24.7744  -31.9541  -37.6496 H         1 UNK         0.0787 
    104 H104       26.2256  -31.4540  -38.5030 H         1 UNK         0.0787 
    105 H105       23.7378  -30.7243  -41.9493 H         1 UNK         0.3055 
    106 H106       24.3319  -33.5707  -42.5663 H         1 UNK         0.1106 
    107 H107       24.1665  -32.7631  -44.9264 H         1 UNK         0.0828 
    108 H108       25.3563  -31.8509  -44.0126 H         1 UNK         0.0828 
    109 H109       23.7823  -31.1444  -44.3542 H         1 UNK         0.0828 
    110 H110       22.3329  -33.6483  -40.9355 H         1 UNK         0.2931 
    111 H111       19.7436  -33.3972  -42.2777 H         1 UNK         0.0412 
    112 H112       21.9858  -35.8997  -42.4187 H         1 UNK         0.3472 
    113 H113       20.8407  -37.1959  -42.6565 H         1 UNK         0.3472 
    114 H114       19.7212  -34.5636  -39.5340 H         1 UNK         0.0970 
    115 H115       20.5581  -33.0557  -39.5872 H         1 UNK         0.0970 
    116 H116       19.8768  -31.0089  -40.4541 H         1 UNK         0.0612 
    117 H117       18.4717  -30.4256  -39.5985 H         1 UNK         0.0612 
@<TRIPOS>BOND
     1    1    2 1    
     2    1   62 1    
     3    1   63 1    
     4    1   64 1    
     5    2    3 2    
     6    2    4 am   BACKBONE|DICT|INTERRES
     7    4    5 1    
     8    4   65 1    
     9    5    6 1    
    10    5   25 1    
    11    5   66 1    
    12    6    7 1    
    13    6   67 1    
    14    6   68 1    
    15    7    8 1    
    16    8    9 1    
    17    8   69 1    
    18    8   70 1    
    19    9   10 ar   
    20    9   14 ar   
    21   10   11 ar   
    22   10   71 1    
    23   11   12 ar   
    24   11   61 1    
    25   12   13 ar   
    26   12   72 1    
    27   13   14 ar   
    28   13   15 1    
    29   14   73 1    
    30   15   16 1    
    31   15   74 1    
    32   15   75 1    
    33   16   17 1    
    34   17   18 1    
    35   17   76 1    
    36   17   77 1    
    37   18   19 1    
    38   18   27 1    
    39   18   78 1    
    40   19   20 am   BACKBONE|DICT|INTERRES
    41   19   79 1    
    42   20   21 2    
    43   20   22 1    
    44   22   23 1    
    45   22   24 1    
    46   22   80 1    
    47   23   81 1    
    48   23   82 1    
    49   23   83 1    
    50   24   25 am   BACKBONE|DICT|INTERRES
    51   24   84 1    
    52   25   26 2    
    53   27   28 2    
    54   27   29 am   BACKBONE|DICT|INTERRES
    55   29   30 1    
    56   29   85 1    
    57   30   31 1    
    58   30   32 1    
    59   30   86 1    
    60   31   87 1    
    61   31   88 1    
    62   31   89 1    
    63   32   33 2    
    64   32   34 am   BACKBONE|DICT|INTERRES
    65   34   35 1    
    66   34   90 1    
    67   35   36 1    
    68   35   37 1    
    69   35   91 1    
    70   36   92 1    
    71   36   93 1    
    72   36   94 1    
    73   37   38 2    
    74   37   39 am   BACKBONE|DICT|INTERRES
    75   39   40 1    
    76   39   95 1    
    77   40   41 1    
    78   40   42 1    
    79   40   96 1    
    80   41   97 1    
    81   41   98 1    
    82   41   99 1    
    83   42   43 2    
    84   42   44 am   BACKBONE|DICT|INTERRES
    85   44   45 1    
    86   44  100 1    
    87   45   46 1    
    88   45   47 1    
    89   45  101 1    
    90   46  102 1    
    91   46  103 1    
    92   46  104 1    
    93   47   48 2    
    94   47   49 am   BACKBONE|DICT|INTERRES
    95   49   50 1    
    96   49  105 1    
    97   50   51 1    
    98   50   52 1    
    99   50  106 1    
   100   51  107 1    
   101   51  108 1    
   102   51  109 1    
   103   52   53 2    
   104   52   54 am   BACKBONE|DICT|INTERRES
   105   54   55 1    
   106   54  110 1    
   107   55   56 1    
   108   55   59 1    
   109   55  111 1    
   110   56   57 am   BACKBONE|DICT|INTERRES
   111   56   58 2    
   112   57  112 1    
   113   57  113 1    
   114   59   60 1    
   115   59  114 1    
   116   59  115 1    
   117   60   61 1    
   118   61  116 1    
   119   61  117 1    
@<TRIPOS>SUBSTRUCTURE
     1 UNK         1 GROUP             0       ****    0 ROOT    
