@<TRIPOS>MOLECULE
3R8
117   119    1
SMALL
USER_CHARGES


@<TRIPOS>ATOM
      1 CA         21.5815  -29.6999  -48.0618 C.3       0 UNK        -0.2013 
      2 C          20.8561  -28.6020  -47.2986 C.2       0 UNK         0.4866 
      3 O          21.4070  -28.0612  -46.3416 O.2       0 UNK        -0.5176 
      4 N          19.6207  -28.2862  -47.7068 N.am      1 UNK        -0.4884 
      5 CA         18.7530  -27.2672  -47.0989 C.3       1 UNK         0.0853 
      6 C6         17.3011  -27.3806  -47.6356 C.3       10 UNK        -0.0849 
      7 S7         16.5865  -29.0574  -47.5013 S.3       10 UNK        -0.2776 
      8 C8         15.8515  -29.0508  -45.8261 C.3       10 UNK         0.0316 
      9 C9         16.7842  -29.4421  -44.6744 C.ar      10 UNK        -0.0863 
     10 C10        18.0712  -29.9635  -44.8717 C.ar      10 UNK        -0.1009 
     11 C11        18.8722  -30.3254  -43.7853 C.ar      10 UNK        -0.0712 
     12 C12        18.3753  -30.1883  -42.4879 C.ar      10 UNK        -0.0894 
     13 C13        17.0949  -29.6769  -42.2705 C.ar      10 UNK        -0.0745 
     14 C14        16.3086  -29.3039  -43.3654 C.ar      10 UNK        -0.0972 
     15 C15        16.5715  -29.5173  -40.8492 C.3       10 UNK         0.0209 
     16 S16        17.5361  -28.2968  -39.8983 S.3       10 UNK        -0.2568 
     17 C17        17.3104  -26.7982  -40.9109 C.3       10 UNK        -0.0983 
     18 CA         18.5265  -26.5325  -41.8370 C.3       3 UNK         0.0876 
     19 N          18.1168  -25.8228  -43.0503 N.am      3 UNK        -0.4424 
     20 C          18.9059  -25.5399  -44.0938 C.2       2 UNK         0.4918 
     21 O          20.1044  -25.8160  -44.1550 O.2       2 UNK        -0.4875 
     22 CA         18.2110  -24.8385  -45.2739 C.3       2 UNK         0.0481 
     23 CB         17.8819  -23.3806  -44.9078 C.3       2 UNK        -0.1831 
     24 N          19.0127  -24.8300  -46.5027 N.am      2 UNK        -0.4498 
     25 C          19.3138  -25.8395  -47.3359 C.2       1 UNK         0.5027 
     26 O          20.0008  -25.6314  -48.3384 O.2       1 UNK        -0.4969 
     27 C          19.6593  -25.8041  -41.0852 C.2       3 UNK         0.5005 
     28 O          19.5606  -24.5941  -40.8621 O.2       3 UNK        -0.5279 
     29 N          20.6948  -26.5552  -40.6946 N.am      4 UNK        -0.4463 
     30 CA         21.8574  -26.0796  -39.9555 C.3       4 UNK         0.0283 
     31 CB         22.7997  -25.2909  -40.8863 C.3       4 UNK        -0.1875 
     32 C          22.5863  -27.2888  -39.3664 C.2       4 UNK         0.4949 
     33 O          22.5789  -28.3648  -39.9727 O.2       4 UNK        -0.5039 
     34 N          23.2669  -27.0729  -38.2340 N.am      5 UNK        -0.4663 
     35 CA         24.1148  -28.0697  -37.5675 C.3       5 UNK         0.0242 
     36 CB         24.5037  -27.5529  -36.1730 C.3       5 UNK        -0.1982 
     37 C          25.3720  -28.4436  -38.3749 C.2       5 UNK         0.5017 
     38 O          25.9191  -29.5261  -38.1708 O.2       5 UNK        -0.5012 
     39 N          25.7942  -27.5539  -39.2841 N.am      6 UNK        -0.4439 
     40 CA         26.8563  -27.7982  -40.2606 C.3       6 UNK         0.0297 
     41 CB         27.3614  -26.4512  -40.8032 C.3       6 UNK        -0.2006 
     42 C          26.4070  -28.7076  -41.4202 C.2       6 UNK         0.4892 
     43 O          27.2573  -29.3649  -42.0213 O.2       6 UNK        -0.5089 
     44 N          25.0999  -28.7218  -41.7248 N.am      7 UNK        -0.4243 
     45 CA         24.5063  -29.5557  -42.7708 C.3       7 UNK         0.0196 
     46 CB         23.2572  -28.8661  -43.3421 C.3       7 UNK        -0.2007 
     47 C          24.1895  -30.9591  -42.2328 C.2       7 UNK         0.5020 
     48 O          24.5879  -31.9420  -42.8569 O.2       7 UNK        -0.5147 
     49 N          23.5300  -31.0143  -41.0631 N.am      8 UNK        -0.4734 
     50 CA         23.2903  -32.2047  -40.2325 C.3       8 UNK         0.0238 
     51 CB         24.6047  -32.6375  -39.5482 C.3       8 UNK        -0.1912 
     52 C          22.6050  -33.3766  -40.9679 C.2       8 UNK         0.5038 
     53 O          23.1180  -34.4982  -40.9519 O.2       8 UNK        -0.5046 
     54 N          21.4506  -33.1019  -41.5892 N.am      9 UNK        -0.4200 
     55 CA         20.6135  -34.1159  -42.2600 C.3       9 UNK         0.0839 
     56 C          19.9095  -35.1167  -41.2951 C.2       9 UNK         0.5513 
     57 N          19.8220  -34.8468  -39.9976 N.am      9 UNK        -0.7519 
     58 O          19.4352  -36.1605  -41.7358 O.2       9 UNK        -0.4960 
     59 C59        19.5759  -33.4815  -43.2219 C.3       10 UNK        -0.0876 
     60 S60        20.3331  -32.5582  -44.6024 S.3       10 UNK        -0.2414 
     61 C61        20.2856  -30.8390  -44.0105 C.3       10 UNK         0.0169 
     62 H62        20.9834  -30.0887  -48.8857 H         1 UNK         0.0903 
     63 H63        22.5161  -29.3174  -48.4713 H         1 UNK         0.0903 
     64 H64        21.8153  -30.5278  -47.3925 H         1 UNK         0.0903 
     65 H65        19.2263  -28.7598  -48.5068 H         1 UNK         0.3096 
     66 H66        18.7461  -27.4679  -46.0286 H         1 UNK         0.1121 
     67 H67        16.6343  -26.6761  -47.1391 H         1 UNK         0.0849 
     68 H68        17.2746  -27.1068  -48.6924 H         1 UNK         0.0849 
     69 H69        15.0187  -29.7555  -45.8309 H         1 UNK         0.0865 
     70 H70        15.4147  -28.0710  -45.6280 H         1 UNK         0.0865 
     71 H71        18.4667  -30.0976  -45.8675 H         1 UNK         0.1346 
     72 H72        18.9877  -30.4644  -41.6407 H         1 UNK         0.1412 
     73 H73        15.3154  -28.9092  -43.1980 H         1 UNK         0.1426 
     74 H74        16.6188  -30.4808  -40.3398 H         1 UNK         0.0716 
     75 H75        15.5212  -29.2215  -40.8494 H         1 UNK         0.0716 
     76 H76        16.3994  -26.9245  -41.4979 H         1 UNK         0.0695 
     77 H77        17.1119  -25.9493  -40.2533 H         1 UNK         0.0695 
     78 H78        18.9207  -27.4872  -42.1885 H         1 UNK         0.0983 
     79 H79        17.1536  -25.5241  -43.0776 H         1 UNK         0.3095 
     80 H80        17.2724  -25.3567  -45.4685 H         1 UNK         0.0454 
     81 H81        17.2360  -23.3235  -44.0308 H         1 UNK         0.0851 
     82 H82        18.7830  -22.8082  -44.6826 H         1 UNK         0.0851 
     83 H83        17.3586  -22.8751  -45.7198 H         1 UNK         0.0851 
     84 H84        19.4322  -23.9376  -46.7172 H         1 UNK         0.2976 
     85 H85        20.6998  -27.5522  -40.8719 H         1 UNK         0.3116 
     86 H86        21.5198  -25.4374  -39.1392 H         1 UNK         0.0646 
     87 H87        23.6851  -24.9441  -40.3526 H         1 UNK         0.0847 
     88 H88        22.3096  -24.4075  -41.2956 H         1 UNK         0.0847 
     89 H89        23.1379  -25.8993  -41.7262 H         1 UNK         0.0847 
     90 H90        23.2196  -26.1597  -37.8029 H         1 UNK         0.3040 
     91 H91        23.5288  -28.9838  -37.4455 H         1 UNK         0.1015 
     92 H92        23.6226  -27.3620  -35.5601 H         1 UNK         0.0786 
     93 H93        25.0817  -26.6296  -36.2298 H         1 UNK         0.0786 
     94 H94        25.1124  -28.2858  -35.6410 H         1 UNK         0.0786 
     95 H95        25.3056  -26.6733  -39.3459 H         1 UNK         0.3172 
     96 H96        27.6869  -28.2935  -39.7529 H         1 UNK         0.0595 
     97 H97        28.1761  -26.5990  -41.5137 H         1 UNK         0.0839 
     98 H98        27.7445  -25.8182  -40.0026 H         1 UNK         0.0839 
     99 H99        26.5748  -25.9010  -41.3214 H         1 UNK         0.0839 
    100 H100       24.4568  -28.2056  -41.1409 H         1 UNK         0.2998 
    101 H101       25.2236  -29.6624  -43.5879 H         1 UNK         0.0822 
    102 H102       22.4492  -28.7943  -42.6143 H         1 UNK         0.0787 
    103 H103       23.4825  -27.8574  -43.6887 H         1 UNK         0.0787 
    104 H104       22.8805  -29.4176  -44.2030 H         1 UNK         0.0787 
    105 H105       23.2207  -30.1337  -40.6599 H         1 UNK         0.3055 
    106 H106       22.6006  -31.8976  -39.4445 H         1 UNK         0.1106 
    107 H107       25.3530  -32.9561  -40.2747 H         1 UNK         0.0828 
    108 H108       25.0331  -31.8264  -38.9625 H         1 UNK         0.0828 
    109 H109       24.4377  -33.4707  -38.8644 H         1 UNK         0.0828 
    110 H110       21.0954  -32.1594  -41.5690 H         1 UNK         0.2931 
    111 H111       21.2843  -34.7226  -42.8720 H         1 UNK         0.0412 
    112 H112       19.3659  -35.5071  -39.3874 H         1 UNK         0.3472 
    113 H113       20.2024  -33.9939  -39.6216 H         1 UNK         0.3472 
    114 H114       18.8756  -32.8533  -42.6727 H         1 UNK         0.0970 
    115 H115       18.9637  -34.2612  -43.6796 H         1 UNK         0.0970 
    116 H116       20.8806  -30.7508  -43.1015 H         1 UNK         0.0612 
    117 H117       20.7725  -30.2097  -44.7540 H         1 UNK         0.0612 
@<TRIPOS>BOND
     1    1    2 1    
     2    1   62 1    
     3    1   63 1    
     4    1   64 1    
     5    2    3 2    
     6    2    4 am   BACKBONE|DICT|INTERRES
     7    4    5 1    
     8    4   65 1    
     9    5    6 1    
    10    5   25 1    
    11    5   66 1    
    12    6    7 1    
    13    6   67 1    
    14    6   68 1    
    15    7    8 1    
    16    8    9 1    
    17    8   69 1    
    18    8   70 1    
    19    9   10 ar   
    20    9   14 ar   
    21   10   11 ar   
    22   10   71 1    
    23   11   12 ar   
    24   11   61 1    
    25   12   13 ar   
    26   12   72 1    
    27   13   14 ar   
    28   13   15 1    
    29   14   73 1    
    30   15   16 1    
    31   15   74 1    
    32   15   75 1    
    33   16   17 1    
    34   17   18 1    
    35   17   76 1    
    36   17   77 1    
    37   18   19 1    
    38   18   27 1    
    39   18   78 1    
    40   19   20 am   BACKBONE|DICT|INTERRES
    41   19   79 1    
    42   20   21 2    
    43   20   22 1    
    44   22   23 1    
    45   22   24 1    
    46   22   80 1    
    47   23   81 1    
    48   23   82 1    
    49   23   83 1    
    50   24   25 am   BACKBONE|DICT|INTERRES
    51   24   84 1    
    52   25   26 2    
    53   27   28 2    
    54   27   29 am   BACKBONE|DICT|INTERRES
    55   29   30 1    
    56   29   85 1    
    57   30   31 1    
    58   30   32 1    
    59   30   86 1    
    60   31   87 1    
    61   31   88 1    
    62   31   89 1    
    63   32   33 2    
    64   32   34 am   BACKBONE|DICT|INTERRES
    65   34   35 1    
    66   34   90 1    
    67   35   36 1    
    68   35   37 1    
    69   35   91 1    
    70   36   92 1    
    71   36   93 1    
    72   36   94 1    
    73   37   38 2    
    74   37   39 am   BACKBONE|DICT|INTERRES
    75   39   40 1    
    76   39   95 1    
    77   40   41 1    
    78   40   42 1    
    79   40   96 1    
    80   41   97 1    
    81   41   98 1    
    82   41   99 1    
    83   42   43 2    
    84   42   44 am   BACKBONE|DICT|INTERRES
    85   44   45 1    
    86   44  100 1    
    87   45   46 1    
    88   45   47 1    
    89   45  101 1    
    90   46  102 1    
    91   46  103 1    
    92   46  104 1    
    93   47   48 2    
    94   47   49 am   BACKBONE|DICT|INTERRES
    95   49   50 1    
    96   49  105 1    
    97   50   51 1    
    98   50   52 1    
    99   50  106 1    
   100   51  107 1    
   101   51  108 1    
   102   51  109 1    
   103   52   53 2    
   104   52   54 am   BACKBONE|DICT|INTERRES
   105   54   55 1    
   106   54  110 1    
   107   55   56 1    
   108   55   59 1    
   109   55  111 1    
   110   56   57 am   BACKBONE|DICT|INTERRES
   111   56   58 2    
   112   57  112 1    
   113   57  113 1    
   114   59   60 1    
   115   59  114 1    
   116   59  115 1    
   117   60   61 1    
   118   61  116 1    
   119   61  117 1    
@<TRIPOS>SUBSTRUCTURE
     1 UNK         1 GROUP             0       ****    0 ROOT    
