@<TRIPOS>MOLECULE
3R8
117   119    1
SMALL
USER_CHARGES


@<TRIPOS>ATOM
      1 CA         18.7573  -23.0330  -49.2261 C.3       0 UNK        -0.2013 
      2 C          19.3386  -23.4064  -47.8706 C.2       0 UNK         0.4866 
      3 O          19.5835  -22.5260  -47.0449 O.2       0 UNK        -0.5176 
      4 N          19.5721  -24.7038  -47.6398 N.am      1 UNK        -0.4884 
      5 CA         20.0617  -25.2628  -46.3760 C.3       1 UNK         0.0853 
      6 C6         20.6186  -26.7092  -46.5312 C.3       10 UNK        -0.0849 
      7 S7         19.8233  -27.7784  -47.7876 S.3       10 UNK        -0.2776 
      8 C8         18.3390  -28.4225  -46.9368 C.3       10 UNK         0.0316 
      9 C9         18.5647  -29.3353  -45.7282 C.ar      10 UNK        -0.0863 
     10 C10        19.8138  -29.8729  -45.3833 C.ar      10 UNK        -0.1009 
     11 C11        19.9538  -30.6812  -44.2499 C.ar      10 UNK        -0.0712 
     12 C12        18.8286  -30.9902  -43.4834 C.ar      10 UNK        -0.0894 
     13 C13        17.5796  -30.4627  -43.8100 C.ar      10 UNK        -0.0745 
     14 C14        17.4551  -29.6431  -44.9341 C.ar      10 UNK        -0.0972 
     15 C15        16.3693  -30.7539  -42.9353 C.3       10 UNK         0.0209 
     16 S16        15.9125  -29.3081  -41.9252 S.3       10 UNK        -0.2568 
     17 C17        17.1569  -29.3368  -40.5862 C.3       10 UNK        -0.0983 
     18 CA         18.4738  -28.5893  -40.9217 C.3       3 UNK         0.0876 
     19 N          18.2487  -27.2669  -41.5090 N.am      3 UNK        -0.4424 
     20 C          19.2038  -26.5089  -42.0578 C.2       2 UNK         0.4918 
     21 O          20.4088  -26.7811  -42.0311 O.2       2 UNK        -0.4875 
     22 CA         18.7351  -25.2366  -42.7718 C.3       2 UNK         0.0481 
     23 CB         18.9774  -24.0004  -41.8920 C.3       2 UNK        -0.1831 
     24 N          19.5063  -25.1141  -44.0052 N.am      2 UNK        -0.4498 
     25 C          19.0114  -25.1769  -45.2472 C.2       1 UNK         0.5027 
     26 O          17.8066  -25.2042  -45.5122 O.2       1 UNK        -0.4969 
     27 C          19.3991  -28.5231  -39.6924 C.2       3 UNK         0.5005 
     28 O          19.2572  -27.6121  -38.8733 O.2       3 UNK        -0.5279 
     29 N          20.3465  -29.4696  -39.6085 N.am      4 UNK        -0.4463 
     30 CA         21.4067  -29.6278  -38.5974 C.3       4 UNK         0.0283 
     31 CB         20.8273  -29.7728  -37.1766 C.3       4 UNK        -0.1875 
     32 C          22.5041  -28.5477  -38.6435 C.2       4 UNK         0.4949 
     33 O          23.6612  -28.8581  -38.3610 O.2       4 UNK        -0.5039 
     34 N          22.1399  -27.3117  -39.0034 N.am      5 UNK        -0.4663 
     35 CA         23.0517  -26.1838  -39.1811 C.3       5 UNK         0.0242 
     36 CB         22.2408  -24.8796  -39.2406 C.3       5 UNK        -0.1982 
     37 C          23.9341  -26.3348  -40.4298 C.2       5 UNK         0.5017 
     38 O          25.1300  -26.0500  -40.3563 O.2       5 UNK        -0.5012 
     39 N          23.3329  -26.7669  -41.5485 N.am      6 UNK        -0.4439 
     40 CA         24.0186  -26.9312  -42.8316 C.3       6 UNK         0.0297 
     41 CB         22.9868  -27.0260  -43.9646 C.3       6 UNK        -0.2006 
     42 C          24.9674  -28.1386  -42.8708 C.2       6 UNK         0.4892 
     43 O          26.0825  -28.0047  -43.3767 O.2       6 UNK        -0.5089 
     44 N          24.5102  -29.2890  -42.3609 N.am      7 UNK        -0.4243 
     45 CA         25.2165  -30.5687  -42.3934 C.3       7 UNK         0.0196 
     46 CB         25.3265  -31.0926  -43.8442 C.3       7 UNK        -0.2007 
     47 C          24.5001  -31.5799  -41.4882 C.2       7 UNK         0.5020 
     48 O          23.4317  -31.2832  -40.9455 O.2       7 UNK        -0.5147 
     49 N          25.0971  -32.7747  -41.3730 N.am      8 UNK        -0.4734 
     50 CA         24.6704  -33.9014  -40.5309 C.3       8 UNK         0.0238 
     51 CB         25.7223  -35.0193  -40.6319 C.3       8 UNK        -0.1912 
     52 C          23.2619  -34.4637  -40.8090 C.2       8 UNK         0.5038 
     53 O          22.7535  -35.2181  -39.9783 O.2       8 UNK        -0.5046 
     54 N          22.6464  -34.0815  -41.9360 N.am      9 UNK        -0.4200 
     55 CA         21.2168  -34.2793  -42.2256 C.3       9 UNK         0.0839 
     56 C          20.2466  -33.5750  -41.2304 C.2       9 UNK         0.5513 
     57 N          20.6872  -32.6039  -40.4380 N.am      9 UNK        -0.7519 
     58 O          19.0721  -33.9271  -41.1703 O.2       9 UNK        -0.4960 
     59 C59        20.8455  -33.9897  -43.7145 C.3       10 UNK        -0.0876 
     60 S60        21.8376  -32.7188  -44.5838 S.3       10 UNK        -0.2414 
     61 C61        21.3302  -31.1540  -43.8086 C.3       10 UNK         0.0169 
     62 H62        18.6056  -23.9069  -49.8594 H         1 UNK         0.0903 
     63 H63        17.7958  -22.5366  -49.0975 H         1 UNK         0.0903 
     64 H64        19.4273  -22.3493  -49.7467 H         1 UNK         0.0903 
     65 H65        19.3382  -25.3923  -48.3423 H         1 UNK         0.3096 
     66 H66        20.8950  -24.6289  -46.0621 H         1 UNK         0.1121 
     67 H67        21.6658  -26.6372  -46.8288 H         1 UNK         0.0849 
     68 H68        20.6396  -27.2346  -45.5759 H         1 UNK         0.0849 
     69 H69        17.7162  -27.5781  -46.6417 H         1 UNK         0.0865 
     70 H70        17.7555  -28.9801  -47.6706 H         1 UNK         0.0865 
     71 H71        20.6896  -29.6516  -45.9761 H         1 UNK         0.1346 
     72 H72        18.9264  -31.6039  -42.6020 H         1 UNK         0.1412 
     73 H73        16.4861  -29.2305  -45.1816 H         1 UNK         0.1426 
     74 H74        16.5457  -31.6166  -42.2906 H         1 UNK         0.0716 
     75 H75        15.5239  -31.0179  -43.5723 H         1 UNK         0.0716 
     76 H76        17.3651  -30.3747  -40.3194 H         1 UNK         0.0695 
     77 H77        16.6864  -28.8905  -39.7077 H         1 UNK         0.0695 
     78 H78        19.0036  -29.1558  -41.6840 H         1 UNK         0.0983 
     79 H79        17.2859  -26.9685  -41.5601 H         1 UNK         0.3095 
     80 H80        17.6669  -25.3166  -42.9843 H         1 UNK         0.0454 
     81 H81        20.0355  -23.8618  -41.6687 H         1 UNK         0.0851 
     82 H82        18.4501  -24.0863  -40.9410 H         1 UNK         0.0851 
     83 H83        18.6197  -23.0941  -42.3807 H         1 UNK         0.0851 
     84 H84        20.5071  -25.1525  -43.8742 H         1 UNK         0.2976 
     85 H85        20.4064  -30.1324  -40.3690 H         1 UNK         0.3116 
     86 H86        21.9024  -30.5693  -38.8363 H         1 UNK         0.0646 
     87 H87        20.3522  -28.8546  -36.8308 H         1 UNK         0.0847 
     88 H88        21.6147  -30.0147  -36.4617 H         1 UNK         0.0847 
     89 H89        20.0892  -30.5731  -37.1277 H         1 UNK         0.0847 
     90 H90        21.1502  -27.1445  -39.1575 H         1 UNK         0.3040 
     91 H91        23.7118  -26.1379  -38.3118 H         1 UNK         0.1015 
     92 H92        21.5325  -24.8838  -40.0693 H         1 UNK         0.0786 
     93 H93        22.8955  -24.0171  -39.3728 H         1 UNK         0.0786 
     94 H94        21.6776  -24.7212  -38.3207 H         1 UNK         0.0786 
     95 H95        22.3299  -26.9306  -41.5364 H         1 UNK         0.3172 
     96 H96        24.6198  -26.0365  -43.0084 H         1 UNK         0.0595 
     97 H97        22.2952  -27.8559  -43.8145 H         1 UNK         0.0839 
     98 H98        23.4753  -27.1763  -44.9285 H         1 UNK         0.0839 
     99 H99        22.4042  -26.1090  -44.0371 H         1 UNK         0.0839 
    100 H100       23.6130  -29.3180  -41.8931 H         1 UNK         0.2998 
    101 H101       26.2181  -30.4176  -41.9857 H         1 UNK         0.0822 
    102 H102       25.9280  -30.4300  -44.4659 H         1 UNK         0.0787 
    103 H103       25.8020  -32.0725  -43.8905 H         1 UNK         0.0787 
    104 H104       24.3489  -31.1827  -44.3150 H         1 UNK         0.0787 
    105 H105       25.9609  -32.9151  -41.8775 H         1 UNK         0.3055 
    106 H106       24.6547  -33.5402  -39.5003 H         1 UNK         0.1106 
    107 H107       25.4645  -35.8615  -39.9879 H         1 UNK         0.0828 
    108 H108       25.8065  -35.4026  -41.6496 H         1 UNK         0.0828 
    109 H109       26.7068  -34.6700  -40.3201 H         1 UNK         0.0828 
    110 H110       23.1357  -33.4609  -42.5634 H         1 UNK         0.2931 
    111 H111       21.0323  -35.3440  -42.0683 H         1 UNK         0.0412 
    112 H112       20.0633  -32.2329  -39.7406 H         1 UNK         0.3472 
    113 H113       21.6553  -32.3073  -40.4818 H         1 UNK         0.3472 
    114 H114       20.9878  -34.9109  -44.2813 H         1 UNK         0.0970 
    115 H115       19.7854  -33.7591  -43.8365 H         1 UNK         0.0970 
    116 H116       21.3734  -31.2455  -42.7248 H         1 UNK         0.0612 
    117 H117       22.0668  -30.3921  -44.0657 H         1 UNK         0.0612 
@<TRIPOS>BOND
     1    1    2 1    
     2    1   62 1    
     3    1   63 1    
     4    1   64 1    
     5    2    3 2    
     6    2    4 am   BACKBONE|DICT|INTERRES
     7    4    5 1    
     8    4   65 1    
     9    5    6 1    
    10    5   25 1    
    11    5   66 1    
    12    6    7 1    
    13    6   67 1    
    14    6   68 1    
    15    7    8 1    
    16    8    9 1    
    17    8   69 1    
    18    8   70 1    
    19    9   10 ar   
    20    9   14 ar   
    21   10   11 ar   
    22   10   71 1    
    23   11   12 ar   
    24   11   61 1    
    25   12   13 ar   
    26   12   72 1    
    27   13   14 ar   
    28   13   15 1    
    29   14   73 1    
    30   15   16 1    
    31   15   74 1    
    32   15   75 1    
    33   16   17 1    
    34   17   18 1    
    35   17   76 1    
    36   17   77 1    
    37   18   19 1    
    38   18   27 1    
    39   18   78 1    
    40   19   20 am   BACKBONE|DICT|INTERRES
    41   19   79 1    
    42   20   21 2    
    43   20   22 1    
    44   22   23 1    
    45   22   24 1    
    46   22   80 1    
    47   23   81 1    
    48   23   82 1    
    49   23   83 1    
    50   24   25 am   BACKBONE|DICT|INTERRES
    51   24   84 1    
    52   25   26 2    
    53   27   28 2    
    54   27   29 am   BACKBONE|DICT|INTERRES
    55   29   30 1    
    56   29   85 1    
    57   30   31 1    
    58   30   32 1    
    59   30   86 1    
    60   31   87 1    
    61   31   88 1    
    62   31   89 1    
    63   32   33 2    
    64   32   34 am   BACKBONE|DICT|INTERRES
    65   34   35 1    
    66   34   90 1    
    67   35   36 1    
    68   35   37 1    
    69   35   91 1    
    70   36   92 1    
    71   36   93 1    
    72   36   94 1    
    73   37   38 2    
    74   37   39 am   BACKBONE|DICT|INTERRES
    75   39   40 1    
    76   39   95 1    
    77   40   41 1    
    78   40   42 1    
    79   40   96 1    
    80   41   97 1    
    81   41   98 1    
    82   41   99 1    
    83   42   43 2    
    84   42   44 am   BACKBONE|DICT|INTERRES
    85   44   45 1    
    86   44  100 1    
    87   45   46 1    
    88   45   47 1    
    89   45  101 1    
    90   46  102 1    
    91   46  103 1    
    92   46  104 1    
    93   47   48 2    
    94   47   49 am   BACKBONE|DICT|INTERRES
    95   49   50 1    
    96   49  105 1    
    97   50   51 1    
    98   50   52 1    
    99   50  106 1    
   100   51  107 1    
   101   51  108 1    
   102   51  109 1    
   103   52   53 2    
   104   52   54 am   BACKBONE|DICT|INTERRES
   105   54   55 1    
   106   54  110 1    
   107   55   56 1    
   108   55   59 1    
   109   55  111 1    
   110   56   57 am   BACKBONE|DICT|INTERRES
   111   56   58 2    
   112   57  112 1    
   113   57  113 1    
   114   59   60 1    
   115   59  114 1    
   116   59  115 1    
   117   60   61 1    
   118   61  116 1    
   119   61  117 1    
@<TRIPOS>SUBSTRUCTURE
     1 UNK         1 GROUP             0       ****    0 ROOT    
