@<TRIPOS>MOLECULE
3R8
117   119    1
SMALL
USER_CHARGES


@<TRIPOS>ATOM
      1 CA         15.1960  -23.1452  -44.7957 C.3       0 UNK        -0.2013 
      2 C          16.5539  -22.9833  -45.4623 C.2       0 UNK         0.4866 
      3 O          17.1881  -21.9392  -45.3120 O.2       0 UNK        -0.5176 
      4 N          16.9971  -24.0079  -46.2017 N.am      1 UNK        -0.4884 
      5 CA         18.2936  -24.0833  -46.8870 C.3       1 UNK         0.0853 
      6 C6         18.3784  -25.2763  -47.8876 C.3       10 UNK        -0.0849 
      7 S7         17.4844  -26.7861  -47.3617 S.3       10 UNK        -0.2776 
      8 C8         18.8132  -27.8980  -46.7769 C.3       10 UNK         0.0316 
      9 C9         18.3617  -28.9397  -45.7471 C.ar      10 UNK        -0.0863 
     10 C10        19.1839  -30.0475  -45.5104 C.ar      10 UNK        -0.1009 
     11 C11        18.8209  -31.0228  -44.5760 C.ar      10 UNK        -0.0712 
     12 C12        17.6229  -30.8895  -43.8707 C.ar      10 UNK        -0.0894 
     13 C13        16.8066  -29.7746  -44.0657 C.ar      10 UNK        -0.0745 
     14 C14        17.1753  -28.8097  -45.0076 C.ar      10 UNK        -0.0972 
     15 C15        15.5566  -29.5895  -43.2170 C.3       10 UNK         0.0209 
     16 S16        15.9753  -29.1394  -41.4982 S.3       10 UNK        -0.2568 
     17 C17        16.7823  -27.5182  -41.7207 C.3       10 UNK        -0.0983 
     18 CA         18.3175  -27.6476  -41.8894 C.3       3 UNK         0.0876 
     19 N          18.8791  -26.5330  -42.6576 N.am      3 UNK        -0.4424 
     20 C          20.1267  -26.5184  -43.1474 C.2       2 UNK         0.4918 
     21 O          20.9252  -27.4434  -42.9897 O.2       2 UNK        -0.4875 
     22 CA         20.5292  -25.2877  -43.9752 C.3       2 UNK         0.0481 
     23 CB         21.9292  -25.4620  -44.6135 C.3       2 UNK        -0.1831 
     24 N          19.4959  -25.0446  -44.9858 N.am      2 UNK        -0.4498 
     25 C          19.4758  -24.0650  -45.8979 C.2       1 UNK         0.5027 
     26 O          20.3210  -23.1724  -45.9790 O.2       1 UNK        -0.4969 
     27 C          19.0636  -27.8104  -40.5521 C.2       3 UNK         0.5005 
     28 O          19.1431  -26.8476  -39.7859 O.2       3 UNK        -0.5279 
     29 N          19.6791  -28.9860  -40.3528 N.am      4 UNK        -0.4463 
     30 CA         20.6283  -29.3614  -39.2919 C.3       4 UNK         0.0283 
     31 CB         20.0028  -29.2389  -37.8897 C.3       4 UNK        -0.1875 
     32 C          21.9874  -28.6341  -39.3607 C.2       4 UNK         0.4949 
     33 O          23.0016  -29.2343  -39.0061 O.2       4 UNK        -0.5039 
     34 N          22.0083  -27.3840  -39.8421 N.am      5 UNK        -0.4663 
     35 CA         23.2081  -26.5728  -40.0711 C.3       5 UNK         0.0242 
     36 CB         22.7941  -25.1549  -40.4938 C.3       5 UNK        -0.1982 
     37 C          24.1802  -27.1860  -41.0947 C.2       5 UNK         0.5017 
     38 O          25.3890  -26.9860  -40.9671 O.2       5 UNK        -0.5012 
     39 N          23.6548  -27.9613  -42.0547 N.am      6 UNK        -0.4439 
     40 CA         24.4014  -28.7782  -43.0164 C.3       6 UNK         0.0297 
     41 CB         23.4584  -29.1681  -44.1713 C.3       6 UNK        -0.2006 
     42 C          25.0624  -30.0128  -42.3624 C.2       6 UNK         0.4892 
     43 O          24.8016  -31.1419  -42.7798 O.2       6 UNK        -0.5089 
     44 N          25.8953  -29.7756  -41.3382 N.am      7 UNK        -0.4243 
     45 CA         26.6927  -30.7464  -40.5752 C.3       7 UNK         0.0196 
     46 CB         27.8743  -31.2440  -41.4346 C.3       7 UNK        -0.2007 
     47 C          25.8654  -31.9037  -39.9761 C.2       7 UNK         0.5020 
     48 O          26.3137  -33.0505  -39.9979 O.2       7 UNK        -0.5147 
     49 N          24.6627  -31.5827  -39.4746 N.am      8 UNK        -0.4734 
     50 CA         23.6411  -32.4986  -38.9455 C.3       8 UNK         0.0238 
     51 CB         24.1575  -33.2660  -37.7090 C.3       8 UNK        -0.1912 
     52 C          23.0112  -33.4313  -40.0022 C.2       8 UNK         0.5038 
     53 O          22.3334  -34.3870  -39.6192 O.2       8 UNK        -0.5046 
     54 N          23.2053  -33.1256  -41.2943 N.am      9 UNK        -0.4200 
     55 CA         22.7022  -33.8656  -42.4631 C.3       9 UNK         0.0839 
     56 C          23.3239  -35.2877  -42.6209 C.2       9 UNK         0.5513 
     57 N          22.9007  -36.0502  -43.6213 N.am      9 UNK        -0.7519 
     58 O          24.2152  -35.7038  -41.8834 O.2       9 UNK        -0.4960 
     59 C59        21.1473  -33.8601  -42.5493 C.3       10 UNK        -0.0876 
     60 S60        20.4534  -32.1731  -42.6612 S.3       10 UNK        -0.2414 
     61 C61        19.7102  -32.2288  -44.3228 C.3       10 UNK         0.0169 
     62 H62        15.2952  -23.0515  -43.7146 H         1 UNK         0.0903 
     63 H63        14.5127  -22.3709  -45.1435 H         1 UNK         0.0903 
     64 H64        14.7475  -24.1147  -45.0120 H         1 UNK         0.0903 
     65 H65        16.4234  -24.8347  -46.3026 H         1 UNK         0.3096 
     66 H66        18.3887  -23.1671  -47.4752 H         1 UNK         0.1121 
     67 H67        19.4115  -25.5209  -48.1444 H         1 UNK         0.0849 
     68 H68        17.9230  -24.9669  -48.8297 H         1 UNK         0.0849 
     69 H69        19.2290  -28.4069  -47.6480 H         1 UNK         0.0865 
     70 H70        19.6314  -27.3217  -46.3478 H         1 UNK         0.0865 
     71 H71        20.1123  -30.1513  -46.0557 H         1 UNK         0.1346 
     72 H72        17.3454  -31.6361  -43.1388 H         1 UNK         0.1412 
     73 H73        16.5364  -27.9488  -45.1386 H         1 UNK         0.1426 
     74 H74        14.9018  -28.8281  -43.6437 H         1 UNK         0.0716 
     75 H75        14.9833  -30.5177  -43.2107 H         1 UNK         0.0716 
     76 H76        16.5272  -26.8717  -40.8787 H         1 UNK         0.0695 
     77 H77        16.3402  -27.0442  -42.5985 H         1 UNK         0.0695 
     78 H78        18.5253  -28.5380  -42.4832 H         1 UNK         0.0983 
     79 H79        18.2996  -25.7125  -42.7537 H         1 UNK         0.3095 
     80 H80        20.5559  -24.4334  -43.2966 H         1 UNK         0.0454 
     81 H81        22.2873  -24.5433  -45.0757 H         1 UNK         0.0851 
     82 H82        21.9261  -26.2409  -45.3760 H         1 UNK         0.0851 
     83 H83        22.6755  -25.7377  -43.8675 H         1 UNK         0.0851 
     84 H84        18.7421  -25.7180  -45.0078 H         1 UNK         0.2976 
     85 H85        19.5751  -29.6846  -41.0773 H         1 UNK         0.3116 
     86 H86        20.8406  -30.4183  -39.4615 H         1 UNK         0.0646 
     87 H87        19.0688  -29.7965  -37.8214 H         1 UNK         0.0847 
     88 H88        20.6757  -29.6389  -37.1301 H         1 UNK         0.0847 
     89 H89        19.7962  -28.2026  -37.6214 H         1 UNK         0.0847 
     90 H90        21.1117  -26.9576  -40.0513 H         1 UNK         0.3040 
     91 H91        23.7428  -26.5055  -39.1211 H         1 UNK         0.1015 
     92 H92        22.2365  -25.1584  -41.4295 H         1 UNK         0.0786 
     93 H93        23.6693  -24.5197  -40.6384 H         1 UNK         0.0786 
     94 H94        22.1724  -24.6801  -39.7345 H         1 UNK         0.0786 
     95 H95        22.6423  -28.0154  -42.1166 H         1 UNK         0.3172 
     96 H96        25.2046  -28.1679  -43.4337 H         1 UNK         0.0595 
     97 H97        22.6133  -29.7619  -43.8189 H         1 UNK         0.0839 
     98 H98        23.9812  -29.7581  -44.9252 H         1 UNK         0.0839 
     99 H99        23.0595  -28.2880  -44.6736 H         1 UNK         0.0839 
    100 H100       25.9925  -28.8030  -41.0572 H         1 UNK         0.2998 
    101 H101       27.1074  -30.2021  -39.7254 H         1 UNK         0.0822 
    102 H102       28.5467  -31.8750  -40.8521 H         1 UNK         0.0787 
    103 H103       27.5313  -31.8317  -42.2871 H         1 UNK         0.0787 
    104 H104       28.4652  -30.4118  -41.8172 H         1 UNK         0.0787 
    105 H105       24.3736  -30.6078  -39.4945 H         1 UNK         0.3055 
    106 H106       22.8232  -31.8631  -38.6044 H         1 UNK         0.1106 
    107 H107       24.5902  -32.5887  -36.9729 H         1 UNK         0.0828 
    108 H108       23.3463  -33.8018  -37.2148 H         1 UNK         0.0828 
    109 H109       24.9144  -34.0043  -37.9747 H         1 UNK         0.0828 
    110 H110       23.8110  -32.3451  -41.5242 H         1 UNK         0.2931 
    111 H111       23.0779  -33.3073  -43.3214 H         1 UNK         0.0412 
    112 H112       23.3083  -36.9649  -43.7409 H         1 UNK         0.3472 
    113 H113       22.2011  -35.7280  -44.2710 H         1 UNK         0.3472 
    114 H114       20.8049  -34.4330  -43.4111 H         1 UNK         0.0970 
    115 H115       20.7099  -34.3569  -41.6824 H         1 UNK         0.0970 
    116 H116       19.1086  -33.1331  -44.4257 H         1 UNK         0.0612 
    117 H117       20.5049  -32.2930  -45.0678 H         1 UNK         0.0612 
@<TRIPOS>BOND
     1    1    2 1    
     2    1   62 1    
     3    1   63 1    
     4    1   64 1    
     5    2    3 2    
     6    2    4 am   BACKBONE|DICT|INTERRES
     7    4    5 1    
     8    4   65 1    
     9    5    6 1    
    10    5   25 1    
    11    5   66 1    
    12    6    7 1    
    13    6   67 1    
    14    6   68 1    
    15    7    8 1    
    16    8    9 1    
    17    8   69 1    
    18    8   70 1    
    19    9   10 ar   
    20    9   14 ar   
    21   10   11 ar   
    22   10   71 1    
    23   11   12 ar   
    24   11   61 1    
    25   12   13 ar   
    26   12   72 1    
    27   13   14 ar   
    28   13   15 1    
    29   14   73 1    
    30   15   16 1    
    31   15   74 1    
    32   15   75 1    
    33   16   17 1    
    34   17   18 1    
    35   17   76 1    
    36   17   77 1    
    37   18   19 1    
    38   18   27 1    
    39   18   78 1    
    40   19   20 am   BACKBONE|DICT|INTERRES
    41   19   79 1    
    42   20   21 2    
    43   20   22 1    
    44   22   23 1    
    45   22   24 1    
    46   22   80 1    
    47   23   81 1    
    48   23   82 1    
    49   23   83 1    
    50   24   25 am   BACKBONE|DICT|INTERRES
    51   24   84 1    
    52   25   26 2    
    53   27   28 2    
    54   27   29 am   BACKBONE|DICT|INTERRES
    55   29   30 1    
    56   29   85 1    
    57   30   31 1    
    58   30   32 1    
    59   30   86 1    
    60   31   87 1    
    61   31   88 1    
    62   31   89 1    
    63   32   33 2    
    64   32   34 am   BACKBONE|DICT|INTERRES
    65   34   35 1    
    66   34   90 1    
    67   35   36 1    
    68   35   37 1    
    69   35   91 1    
    70   36   92 1    
    71   36   93 1    
    72   36   94 1    
    73   37   38 2    
    74   37   39 am   BACKBONE|DICT|INTERRES
    75   39   40 1    
    76   39   95 1    
    77   40   41 1    
    78   40   42 1    
    79   40   96 1    
    80   41   97 1    
    81   41   98 1    
    82   41   99 1    
    83   42   43 2    
    84   42   44 am   BACKBONE|DICT|INTERRES
    85   44   45 1    
    86   44  100 1    
    87   45   46 1    
    88   45   47 1    
    89   45  101 1    
    90   46  102 1    
    91   46  103 1    
    92   46  104 1    
    93   47   48 2    
    94   47   49 am   BACKBONE|DICT|INTERRES
    95   49   50 1    
    96   49  105 1    
    97   50   51 1    
    98   50   52 1    
    99   50  106 1    
   100   51  107 1    
   101   51  108 1    
   102   51  109 1    
   103   52   53 2    
   104   52   54 am   BACKBONE|DICT|INTERRES
   105   54   55 1    
   106   54  110 1    
   107   55   56 1    
   108   55   59 1    
   109   55  111 1    
   110   56   57 am   BACKBONE|DICT|INTERRES
   111   56   58 2    
   112   57  112 1    
   113   57  113 1    
   114   59   60 1    
   115   59  114 1    
   116   59  115 1    
   117   60   61 1    
   118   61  116 1    
   119   61  117 1    
@<TRIPOS>SUBSTRUCTURE
     1 UNK         1 GROUP             0       ****    0 ROOT    
