@<TRIPOS>MOLECULE
3R8
117   119    1
SMALL
USER_CHARGES


@<TRIPOS>ATOM
      1 CA         13.6157  -23.4406  -45.1708 C.3       0 UNK        -0.2013 
      2 C          14.9476  -23.8893  -45.7531 C.2       0 UNK         0.4866 
      3 O          15.4220  -23.2988  -46.7237 O.2       0 UNK        -0.5176 
      4 N          15.5547  -24.9309  -45.1689 N.am      1 UNK        -0.4884 
      5 CA         16.8300  -25.5136  -45.6115 C.3       1 UNK         0.0853 
      6 C6         17.1099  -26.8840  -44.9417 C.3       10 UNK        -0.0849 
      7 S7         15.7665  -28.1042  -45.1063 S.3       10 UNK        -0.2776 
      8 C8         15.6303  -28.7138  -43.3881 C.3       10 UNK         0.0316 
      9 C9         16.9482  -29.2628  -42.8454 C.ar      10 UNK        -0.0863 
     10 C10        17.5929  -30.3170  -43.4990 C.ar      10 UNK        -0.1009 
     11 C11        18.7970  -30.8304  -43.0104 C.ar      10 UNK        -0.0712 
     12 C12        19.3528  -30.2897  -41.8466 C.ar      10 UNK        -0.0894 
     13 C13        18.7126  -29.2447  -41.1711 C.ar      10 UNK        -0.0745 
     14 C14        17.5151  -28.7299  -41.6810 C.ar      10 UNK        -0.0972 
     15 C15        19.2875  -28.7142  -39.8621 C.3       10 UNK         0.0209 
     16 S16        20.9346  -27.9611  -40.0630 S.3       10 UNK        -0.2568 
     17 C17        20.5430  -26.3084  -40.7292 C.3       10 UNK        -0.0983 
     18 CA         20.6138  -26.2696  -42.2765 C.3       3 UNK         0.0876 
     19 N          19.7881  -25.2032  -42.8468 N.am      3 UNK        -0.4424 
     20 C          20.0320  -23.8840  -42.8797 C.2       2 UNK         0.4918 
     21 O          21.0126  -23.3528  -42.3584 O.2       2 UNK        -0.4875 
     22 CA         18.9920  -23.0013  -43.6100 C.3       2 UNK         0.0481 
     23 CB         19.6631  -22.0015  -44.5746 C.3       2 UNK        -0.1831 
     24 N          17.9257  -23.7651  -44.2817 N.am      2 UNK        -0.4498 
     25 C          18.0406  -24.5996  -45.3296 C.2       1 UNK         0.5027 
     26 O          19.0749  -24.7505  -45.9804 O.2       1 UNK        -0.4969 
     27 C          22.0463  -26.2783  -42.8582 C.2       3 UNK         0.5005 
     28 O          23.0282  -26.3556  -42.1166 O.2       3 UNK        -0.5279 
     29 N          22.1386  -26.2227  -44.1968 N.am      4 UNK        -0.4463 
     30 CA         23.3909  -26.2370  -44.9667 C.3       4 UNK         0.0283 
     31 CB         23.0640  -26.0641  -46.4586 C.3       4 UNK        -0.1875 
     32 C          24.2649  -27.4895  -44.7476 C.2       4 UNK         0.4949 
     33 O          25.4725  -27.4314  -44.9775 O.2       4 UNK        -0.5039 
     34 N          23.6484  -28.5847  -44.2823 N.am      5 UNK        -0.4663 
     35 CA         24.3142  -29.8187  -43.8613 C.3       5 UNK         0.0242 
     36 CB         23.2636  -30.9381  -43.7766 C.3       5 UNK        -0.1982 
     37 C          25.0598  -29.7019  -42.5172 C.2       5 UNK         0.5017 
     38 O          25.8098  -30.6196  -42.1874 O.2       5 UNK        -0.5012 
     39 N          24.8254  -28.6223  -41.7504 N.am      6 UNK        -0.4439 
     40 CA         25.3632  -28.3635  -40.4072 C.3       6 UNK         0.0297 
     41 CB         26.8855  -28.1142  -40.4605 C.3       6 UNK        -0.2006 
     42 C          24.9622  -29.4633  -39.4045 C.2       6 UNK         0.4892 
     43 O          25.8162  -30.0234  -38.7161 O.2       6 UNK        -0.5089 
     44 N          23.6576  -29.7720  -39.3916 N.am      7 UNK        -0.4243 
     45 CA         22.9546  -30.7934  -38.6030 C.3       7 UNK         0.0196 
     46 CB         23.1618  -30.5838  -37.0893 C.3       7 UNK        -0.2007 
     47 C          23.2290  -32.2519  -39.0166 C.2       7 UNK         0.5020 
     48 O          22.5131  -33.1388  -38.5495 O.2       7 UNK        -0.5147 
     49 N          24.1973  -32.5051  -39.9080 N.am      8 UNK        -0.4734 
     50 CA         24.5487  -33.8374  -40.4140 C.3       8 UNK         0.0238 
     51 CB         26.0255  -33.8371  -40.8505 C.3       8 UNK        -0.1912 
     52 C          23.5962  -34.3009  -41.5353 C.2       8 UNK         0.5038 
     53 O          24.0501  -34.6615  -42.6228 O.2       8 UNK        -0.5046 
     54 N          22.2880  -34.2642  -41.2540 N.am      9 UNK        -0.4200 
     55 CA         21.2109  -34.6752  -42.1678 C.3       9 UNK         0.0839 
     56 C          21.0398  -36.2178  -42.3088 C.2       9 UNK         0.5513 
     57 N          21.6372  -37.0334  -41.4475 N.am      9 UNK        -0.7519 
     58 O          20.3661  -36.6858  -43.2224 O.2       9 UNK        -0.4960 
     59 C59        19.8769  -33.9624  -41.8067 C.3       10 UNK        -0.0876 
     60 S60        18.8572  -33.5948  -43.2751 S.3       10 UNK        -0.2414 
     61 C61        19.4926  -31.9592  -43.7571 C.3       10 UNK         0.0169 
     62 H62        12.8346  -23.5066  -45.9277 H         1 UNK         0.0903 
     63 H63        13.3151  -24.0518  -44.3199 H         1 UNK         0.0903 
     64 H64        13.6813  -22.4050  -44.8382 H         1 UNK         0.0903 
     65 H65        15.1001  -25.4046  -44.4006 H         1 UNK         0.3096 
     66 H66        16.7778  -25.6602  -46.6929 H         1 UNK         0.1121 
     67 H67        17.3147  -26.7417  -43.8795 H         1 UNK         0.0849 
     68 H68        18.0097  -27.3384  -45.3626 H         1 UNK         0.0849 
     69 H69        15.2557  -27.9072  -42.7559 H         1 UNK         0.0865 
     70 H70        14.8778  -29.5027  -43.3524 H         1 UNK         0.0865 
     71 H71        17.1573  -30.7353  -44.3964 H         1 UNK         0.1346 
     72 H72        20.2810  -30.6843  -41.4577 H         1 UNK         0.1412 
     73 H73        17.0141  -27.9257  -41.1592 H         1 UNK         0.1426 
     74 H74        19.3742  -29.5464  -39.1622 H         1 UNK         0.0716 
     75 H75        18.6115  -27.9975  -39.3933 H         1 UNK         0.0716 
     76 H76        21.2174  -25.5727  -40.2872 H         1 UNK         0.0695 
     77 H77        19.5436  -26.0323  -40.3899 H         1 UNK         0.0695 
     78 H78        20.1557  -27.1907  -42.6410 H         1 UNK         0.0983 
     79 H79        18.9403  -25.5094  -43.2952 H         1 UNK         0.3095 
     80 H80        18.4940  -22.4207  -42.8323 H         1 UNK         0.0454 
     81 H81        18.9236  -21.3882  -45.0892 H         1 UNK         0.0851 
     82 H82        20.2678  -22.5039  -45.3299 H         1 UNK         0.0851 
     83 H83        20.3246  -21.3232  -44.0344 H         1 UNK         0.0851 
     84 H84        17.0208  -23.7260  -43.8318 H         1 UNK         0.2976 
     85 H85        21.2862  -26.1311  -44.7326 H         1 UNK         0.3116 
     86 H86        23.9793  -25.3756  -44.6438 H         1 UNK         0.0646 
     87 H87        22.4561  -26.8869  -46.8370 H         1 UNK         0.0847 
     88 H88        22.5245  -25.1348  -46.6434 H         1 UNK         0.0847 
     89 H89        23.9756  -26.0311  -47.0571 H         1 UNK         0.0847 
     90 H90        22.6498  -28.5394  -44.1447 H         1 UNK         0.3040 
     91 H91        25.0517  -30.0895  -44.6203 H         1 UNK         0.1015 
     92 H92        23.7313  -31.8959  -43.5441 H         1 UNK         0.0786 
     93 H93        22.7334  -31.0615  -44.7211 H         1 UNK         0.0786 
     94 H94        22.5291  -30.7376  -42.9958 H         1 UNK         0.0786 
     95 H95        24.1836  -27.9113  -42.0951 H         1 UNK         0.3172 
     96 H96        24.8906  -27.4430  -40.0606 H         1 UNK         0.0595 
     97 H97        27.4345  -29.0061  -40.7640 H         1 UNK         0.0839 
     98 H98        27.2655  -27.8177  -39.4822 H         1 UNK         0.0839 
     99 H99        27.1314  -27.3150  -41.1596 H         1 UNK         0.0839 
    100 H100       23.0579  -29.2323  -40.0031 H         1 UNK         0.2998 
    101 H101       21.8949  -30.6318  -38.8053 H         1 UNK         0.0822 
    102 H102       22.5200  -31.2511  -36.5126 H         1 UNK         0.0787 
    103 H103       24.1892  -30.7850  -36.7853 H         1 UNK         0.0787 
    104 H104       22.9157  -29.5640  -36.7931 H         1 UNK         0.0787 
    105 H105       24.7371  -31.7293  -40.2705 H         1 UNK         0.3055 
    106 H106       24.4517  -34.5589  -39.5993 H         1 UNK         0.1106 
    107 H107       26.6801  -33.5128  -40.0412 H         1 UNK         0.0828 
    108 H108       26.3459  -34.8376  -41.1440 H         1 UNK         0.0828 
    109 H109       26.1959  -33.1796  -41.7032 H         1 UNK         0.0828 
    110 H110       22.0172  -33.9735  -40.3207 H         1 UNK         0.2931 
    111 H111       21.5132  -34.3234  -43.1565 H         1 UNK         0.0412 
    112 H112       21.5253  -38.0299  -41.5526 H         1 UNK         0.3472 
    113 H113       22.1932  -36.6654  -40.6925 H         1 UNK         0.3472 
    114 H114       20.0682  -33.0235  -41.2877 H         1 UNK         0.0970 
    115 H115       19.2881  -34.5579  -41.1062 H         1 UNK         0.0970 
    116 H116       19.3441  -31.8310  -44.8303 H         1 UNK         0.0612 
    117 H117       20.5693  -31.9246  -43.5962 H         1 UNK         0.0612 
@<TRIPOS>BOND
     1    1    2 1    
     2    1   62 1    
     3    1   63 1    
     4    1   64 1    
     5    2    3 2    
     6    2    4 am   BACKBONE|DICT|INTERRES
     7    4    5 1    
     8    4   65 1    
     9    5    6 1    
    10    5   25 1    
    11    5   66 1    
    12    6    7 1    
    13    6   67 1    
    14    6   68 1    
    15    7    8 1    
    16    8    9 1    
    17    8   69 1    
    18    8   70 1    
    19    9   10 ar   
    20    9   14 ar   
    21   10   11 ar   
    22   10   71 1    
    23   11   12 ar   
    24   11   61 1    
    25   12   13 ar   
    26   12   72 1    
    27   13   14 ar   
    28   13   15 1    
    29   14   73 1    
    30   15   16 1    
    31   15   74 1    
    32   15   75 1    
    33   16   17 1    
    34   17   18 1    
    35   17   76 1    
    36   17   77 1    
    37   18   19 1    
    38   18   27 1    
    39   18   78 1    
    40   19   20 am   BACKBONE|DICT|INTERRES
    41   19   79 1    
    42   20   21 2    
    43   20   22 1    
    44   22   23 1    
    45   22   24 1    
    46   22   80 1    
    47   23   81 1    
    48   23   82 1    
    49   23   83 1    
    50   24   25 am   BACKBONE|DICT|INTERRES
    51   24   84 1    
    52   25   26 2    
    53   27   28 2    
    54   27   29 am   BACKBONE|DICT|INTERRES
    55   29   30 1    
    56   29   85 1    
    57   30   31 1    
    58   30   32 1    
    59   30   86 1    
    60   31   87 1    
    61   31   88 1    
    62   31   89 1    
    63   32   33 2    
    64   32   34 am   BACKBONE|DICT|INTERRES
    65   34   35 1    
    66   34   90 1    
    67   35   36 1    
    68   35   37 1    
    69   35   91 1    
    70   36   92 1    
    71   36   93 1    
    72   36   94 1    
    73   37   38 2    
    74   37   39 am   BACKBONE|DICT|INTERRES
    75   39   40 1    
    76   39   95 1    
    77   40   41 1    
    78   40   42 1    
    79   40   96 1    
    80   41   97 1    
    81   41   98 1    
    82   41   99 1    
    83   42   43 2    
    84   42   44 am   BACKBONE|DICT|INTERRES
    85   44   45 1    
    86   44  100 1    
    87   45   46 1    
    88   45   47 1    
    89   45  101 1    
    90   46  102 1    
    91   46  103 1    
    92   46  104 1    
    93   47   48 2    
    94   47   49 am   BACKBONE|DICT|INTERRES
    95   49   50 1    
    96   49  105 1    
    97   50   51 1    
    98   50   52 1    
    99   50  106 1    
   100   51  107 1    
   101   51  108 1    
   102   51  109 1    
   103   52   53 2    
   104   52   54 am   BACKBONE|DICT|INTERRES
   105   54   55 1    
   106   54  110 1    
   107   55   56 1    
   108   55   59 1    
   109   55  111 1    
   110   56   57 am   BACKBONE|DICT|INTERRES
   111   56   58 2    
   112   57  112 1    
   113   57  113 1    
   114   59   60 1    
   115   59  114 1    
   116   59  115 1    
   117   60   61 1    
   118   61  116 1    
   119   61  117 1    
@<TRIPOS>SUBSTRUCTURE
     1 UNK         1 GROUP             0       ****    0 ROOT    
