@<TRIPOS>MOLECULE
3R8
117   119    1
SMALL
USER_CHARGES


@<TRIPOS>ATOM
      1 CA         16.6130  -22.8401  -48.5813 C.3       0 UNK        -0.2013 
      2 C          17.8527  -23.4958  -47.9913 C.2       0 UNK         0.4866 
      3 O          18.9298  -22.8989  -48.0121 O.2       0 UNK        -0.5176 
      4 N          17.7126  -24.7222  -47.4725 N.am      1 UNK        -0.4884 
      5 CA         18.7807  -25.4691  -46.8014 C.3       1 UNK         0.0853 
      6 C6         18.4220  -26.9711  -46.6941 C.3       10 UNK        -0.0849 
      7 S7         19.8759  -28.0258  -46.3672 S.3       10 UNK        -0.2776 
      8 C8         19.1033  -29.6710  -46.2550 C.3       10 UNK         0.0316 
      9 C9         18.7882  -30.0674  -44.8179 C.ar      10 UNK        -0.0863 
     10 C10        19.6064  -30.9856  -44.1501 C.ar      10 UNK        -0.1009 
     11 C11        19.2888  -31.4106  -42.8568 C.ar      10 UNK        -0.0712 
     12 C12        18.1607  -30.8882  -42.2189 C.ar      10 UNK        -0.0894 
     13 C13        17.3446  -29.9565  -42.8668 C.ar      10 UNK        -0.0745 
     14 C14        17.6578  -29.5579  -44.1698 C.ar      10 UNK        -0.0972 
     15 C15        16.1060  -29.4114  -42.1690 C.3       10 UNK         0.0209 
     16 S16        16.5232  -28.3979  -40.7139 S.3       10 UNK        -0.2568 
     17 C17        17.2507  -26.9053  -41.4723 C.3       10 UNK        -0.0983 
     18 CA         18.8012  -26.8783  -41.4646 C.3       3 UNK         0.0876 
     19 N          19.2928  -25.8315  -42.3719 N.am      3 UNK        -0.4424 
     20 C          20.5719  -25.5525  -42.6522 C.2       2 UNK         0.4918 
     21 O          21.5243  -26.1262  -42.1259 O.2       2 UNK        -0.4875 
     22 CA         20.8189  -24.4452  -43.6933 C.3       2 UNK         0.0481 
     23 CB         22.3045  -24.0508  -43.7891 C.3       2 UNK        -0.1831 
     24 N          20.3488  -24.8592  -45.0153 N.am      2 UNK        -0.4498 
     25 C          19.0697  -24.8675  -45.4111 C.2       1 UNK         0.5027 
     26 O          18.1353  -24.4744  -44.7054 O.2       1 UNK        -0.4969 
     27 C          19.3829  -26.7775  -40.0324 C.2       3 UNK         0.5005 
     28 O          19.6176  -27.8065  -39.3980 O.2       3 UNK        -0.5279 
     29 N          19.6522  -25.5470  -39.5673 N.am      4 UNK        -0.4463 
     30 CA         20.3015  -25.2612  -38.2837 C.3       4 UNK         0.0283 
     31 CB         20.1984  -23.7570  -37.9844 C.3       4 UNK        -0.1875 
     32 C          21.7708  -25.7221  -38.2163 C.2       4 UNK         0.4949 
     33 O          22.2255  -26.1164  -37.1422 O.2       4 UNK        -0.5039 
     34 N          22.4831  -25.6677  -39.3507 N.am      5 UNK        -0.4663 
     35 CA         23.8519  -26.1749  -39.4936 C.3       5 UNK         0.0242 
     36 CB         24.5939  -25.3451  -40.5544 C.3       5 UNK        -0.1982 
     37 C          23.8692  -27.6645  -39.8742 C.2       5 UNK         0.5017 
     38 O          24.8101  -28.3703  -39.5081 O.2       5 UNK        -0.5012 
     39 N          22.8322  -28.1038  -40.6015 N.am      6 UNK        -0.4439 
     40 CA         22.5781  -29.4384  -41.1445 C.3       6 UNK         0.0297 
     41 CB         22.5263  -30.5182  -40.0423 C.3       6 UNK        -0.2006 
     42 C          23.5452  -29.7967  -42.2811 C.2       6 UNK         0.4892 
     43 O          23.1130  -29.8739  -43.4307 O.2       6 UNK        -0.5089 
     44 N          24.8232  -30.0198  -41.9337 N.am      7 UNK        -0.4243 
     45 CA         25.9317  -30.4408  -42.8082 C.3       7 UNK         0.0196 
     46 CB         26.3263  -29.2925  -43.7606 C.3       7 UNK        -0.2007 
     47 C          25.6664  -31.7659  -43.5597 C.2       7 UNK         0.5020 
     48 O          26.2437  -32.0018  -44.6222 O.2       7 UNK        -0.5147 
     49 N          24.7911  -32.5999  -42.9912 N.am      8 UNK        -0.4734 
     50 CA         24.2161  -33.8289  -43.5286 C.3       8 UNK         0.0238 
     51 CB         23.3898  -33.5296  -44.8022 C.3       8 UNK        -0.1912 
     52 C          23.3449  -34.4338  -42.4137 C.2       8 UNK         0.5038 
     53 O          23.4268  -33.9805  -41.2675 O.2       8 UNK        -0.5046 
     54 N          22.5101  -35.4193  -42.7663 N.am      9 UNK        -0.4200 
     55 CA         21.5367  -36.0851  -41.8798 C.3       9 UNK         0.0839 
     56 C          22.1716  -37.0246  -40.8085 C.2       9 UNK         0.5513 
     57 N          23.4371  -37.4075  -40.9301 N.am      9 UNK        -0.7519 
     58 O          21.5005  -37.4425  -39.8680 O.2       9 UNK        -0.4960 
     59 C59        20.4850  -35.1105  -41.2667 C.3       10 UNK        -0.0876 
     60 S60        19.5731  -34.1336  -42.5136 S.3       10 UNK        -0.2414 
     61 C61        20.1495  -32.4454  -42.1503 C.3       10 UNK         0.0169 
     62 H62        15.7365  -23.4837  -48.5084 H         1 UNK         0.0903 
     63 H63        16.3952  -21.9102  -48.0565 H         1 UNK         0.0903 
     64 H64        16.7759  -22.6076  -49.6334 H         1 UNK         0.0903 
     65 H65        16.7968  -25.1483  -47.4510 H         1 UNK         0.3096 
     66 H66        19.6789  -25.3706  -47.4161 H         1 UNK         0.1121 
     67 H67        17.6600  -27.1337  -45.9313 H         1 UNK         0.0849 
     68 H68        17.9855  -27.3130  -47.6344 H         1 UNK         0.0849 
     69 H69        18.1952  -29.7055  -46.8586 H         1 UNK         0.0865 
     70 H70        19.7827  -30.3986  -46.7018 H         1 UNK         0.0865 
     71 H71        20.4799  -31.3888  -44.6441 H         1 UNK         0.1346 
     72 H72        17.9109  -31.2119  -41.2175 H         1 UNK         0.1412 
     73 H73        17.0104  -28.8622  -44.6830 H         1 UNK         0.1426 
     74 H74        15.4874  -30.2494  -41.8447 H         1 UNK         0.0716 
     75 H75        15.4904  -28.8267  -42.8543 H         1 UNK         0.0716 
     76 H76        16.8833  -26.8345  -42.4976 H         1 UNK         0.0695 
     77 H77        16.8514  -26.0300  -40.9567 H         1 UNK         0.0695 
     78 H78        19.1574  -27.8248  -41.8779 H         1 UNK         0.0983 
     79 H79        18.5893  -25.3214  -42.8957 H         1 UNK         0.3095 
     80 H80        20.2613  -23.5614  -43.3765 H         1 UNK         0.0454 
     81 H81        22.6788  -23.7044  -42.8250 H         1 UNK         0.0851 
     82 H82        22.4547  -23.2399  -44.5018 H         1 UNK         0.0851 
     83 H83        22.9290  -24.8899  -44.0988 H         1 UNK         0.0851 
     84 H84        21.0452  -25.2564  -45.6304 H         1 UNK         0.2976 
     85 H85        19.4223  -24.7557  -40.1510 H         1 UNK         0.3116 
     86 H86        19.7536  -25.7997  -37.5073 H         1 UNK         0.0646 
     87 H87        20.6505  -23.5204  -37.0201 H         1 UNK         0.0847 
     88 H88        20.7097  -23.1571  -38.7383 H         1 UNK         0.0847 
     89 H89        19.1594  -23.4299  -37.9404 H         1 UNK         0.0847 
     90 H90        22.0199  -25.3765  -40.2022 H         1 UNK         0.3040 
     91 H91        24.3827  -26.0677  -38.5447 H         1 UNK         0.1015 
     92 H92        25.6295  -25.6745  -40.6502 H         1 UNK         0.0786 
     93 H93        24.6136  -24.2880  -40.2892 H         1 UNK         0.0786 
     94 H94        24.1324  -25.4368  -41.5382 H         1 UNK         0.0786 
     95 H95        22.1922  -27.3907  -40.9416 H         1 UNK         0.3172 
     96 H96        21.5817  -29.3882  -41.5878 H         1 UNK         0.0595 
     97 H97        23.4521  -30.5856  -39.4719 H         1 UNK         0.0839 
     98 H98        22.3479  -31.5052  -40.4677 H         1 UNK         0.0839 
     99 H99        21.7176  -30.3171  -39.3394 H         1 UNK         0.0839 
    100 H100       25.0622  -29.8538  -40.9613 H         1 UNK         0.2998 
    101 H101       26.7813  -30.6331  -42.1514 H         1 UNK         0.0822 
    102 H102       27.2311  -29.5370  -44.3184 H         1 UNK         0.0787 
    103 H103       26.5249  -28.3722  -43.2111 H         1 UNK         0.0787 
    104 H104       25.5409  -29.0856  -44.4885 H         1 UNK         0.0787 
    105 H105       24.4193  -32.3640  -42.0781 H         1 UNK         0.3055 
    106 H106       25.0227  -34.5276  -43.7585 H         1 UNK         0.1106 
    107 H107       23.9955  -33.0616  -45.5777 H         1 UNK         0.0828 
    108 H108       22.5554  -32.8604  -44.5888 H         1 UNK         0.0828 
    109 H109       22.9793  -34.4388  -45.2417 H         1 UNK         0.0828 
    110 H110       22.5115  -35.7398  -43.7234 H         1 UNK         0.2931 
    111 H111       20.9872  -36.7627  -42.5343 H         1 UNK         0.0412 
    112 H112       23.8354  -38.0237  -40.2386 H         1 UNK         0.3472 
    113 H113       23.9978  -37.0852  -41.7023 H         1 UNK         0.3472 
    114 H114       19.7375  -35.6734  -40.7050 H         1 UNK         0.0970 
    115 H115       20.9541  -34.4467  -40.5391 H         1 UNK         0.0970 
    116 H116       20.1180  -32.2731  -41.0735 H         1 UNK         0.0612 
    117 H117       21.1908  -32.3407  -42.4565 H         1 UNK         0.0612 
@<TRIPOS>BOND
     1    1    2 1    
     2    1   62 1    
     3    1   63 1    
     4    1   64 1    
     5    2    3 2    
     6    2    4 am   BACKBONE|DICT|INTERRES
     7    4    5 1    
     8    4   65 1    
     9    5    6 1    
    10    5   25 1    
    11    5   66 1    
    12    6    7 1    
    13    6   67 1    
    14    6   68 1    
    15    7    8 1    
    16    8    9 1    
    17    8   69 1    
    18    8   70 1    
    19    9   10 ar   
    20    9   14 ar   
    21   10   11 ar   
    22   10   71 1    
    23   11   12 ar   
    24   11   61 1    
    25   12   13 ar   
    26   12   72 1    
    27   13   14 ar   
    28   13   15 1    
    29   14   73 1    
    30   15   16 1    
    31   15   74 1    
    32   15   75 1    
    33   16   17 1    
    34   17   18 1    
    35   17   76 1    
    36   17   77 1    
    37   18   19 1    
    38   18   27 1    
    39   18   78 1    
    40   19   20 am   BACKBONE|DICT|INTERRES
    41   19   79 1    
    42   20   21 2    
    43   20   22 1    
    44   22   23 1    
    45   22   24 1    
    46   22   80 1    
    47   23   81 1    
    48   23   82 1    
    49   23   83 1    
    50   24   25 am   BACKBONE|DICT|INTERRES
    51   24   84 1    
    52   25   26 2    
    53   27   28 2    
    54   27   29 am   BACKBONE|DICT|INTERRES
    55   29   30 1    
    56   29   85 1    
    57   30   31 1    
    58   30   32 1    
    59   30   86 1    
    60   31   87 1    
    61   31   88 1    
    62   31   89 1    
    63   32   33 2    
    64   32   34 am   BACKBONE|DICT|INTERRES
    65   34   35 1    
    66   34   90 1    
    67   35   36 1    
    68   35   37 1    
    69   35   91 1    
    70   36   92 1    
    71   36   93 1    
    72   36   94 1    
    73   37   38 2    
    74   37   39 am   BACKBONE|DICT|INTERRES
    75   39   40 1    
    76   39   95 1    
    77   40   41 1    
    78   40   42 1    
    79   40   96 1    
    80   41   97 1    
    81   41   98 1    
    82   41   99 1    
    83   42   43 2    
    84   42   44 am   BACKBONE|DICT|INTERRES
    85   44   45 1    
    86   44  100 1    
    87   45   46 1    
    88   45   47 1    
    89   45  101 1    
    90   46  102 1    
    91   46  103 1    
    92   46  104 1    
    93   47   48 2    
    94   47   49 am   BACKBONE|DICT|INTERRES
    95   49   50 1    
    96   49  105 1    
    97   50   51 1    
    98   50   52 1    
    99   50  106 1    
   100   51  107 1    
   101   51  108 1    
   102   51  109 1    
   103   52   53 2    
   104   52   54 am   BACKBONE|DICT|INTERRES
   105   54   55 1    
   106   54  110 1    
   107   55   56 1    
   108   55   59 1    
   109   55  111 1    
   110   56   57 am   BACKBONE|DICT|INTERRES
   111   56   58 2    
   112   57  112 1    
   113   57  113 1    
   114   59   60 1    
   115   59  114 1    
   116   59  115 1    
   117   60   61 1    
   118   61  116 1    
   119   61  117 1    
@<TRIPOS>SUBSTRUCTURE
     1 UNK         1 GROUP             0       ****    0 ROOT    
