@<TRIPOS>MOLECULE
3R8
117   119    1
SMALL
USER_CHARGES


@<TRIPOS>ATOM
      1 CA         18.7330  -25.8523  -38.8382 C.3       0 UNK        -0.2013 
      2 C          18.2217  -25.5006  -40.2273 C.2       0 UNK         0.4866 
      3 O          17.8765  -24.3454  -40.4793 O.2       0 UNK        -0.5176 
      4 N          18.1657  -26.4875  -41.1284 N.am      1 UNK        -0.4884 
      5 CA         17.8273  -26.3178  -42.5436 C.3       1 UNK         0.0853 
      6 C6         17.4235  -27.6773  -43.1707 C.3       10 UNK        -0.0849 
      7 S7         16.4735  -27.4862  -44.7187 S.3       10 UNK        -0.2776 
      8 C8         16.0095  -29.2103  -45.0930 C.3       10 UNK         0.0316 
      9 C9         17.2103  -30.1419  -45.2162 C.ar      10 UNK        -0.0863 
     10 C10        17.2703  -31.3078  -44.4471 C.ar      10 UNK        -0.1009 
     11 C11        18.3739  -32.1645  -44.5297 C.ar      10 UNK        -0.0712 
     12 C12        19.4135  -31.8542  -45.4115 C.ar      10 UNK        -0.0894 
     13 C13        19.3640  -30.6960  -46.1929 C.ar      10 UNK        -0.0745 
     14 C14        18.2567  -29.8477  -46.0962 C.ar      10 UNK        -0.0972 
     15 C15        20.5110  -30.3557  -47.1358 C.3       10 UNK         0.0209 
     16 S16        22.0677  -30.0401  -46.2423 S.3       10 UNK        -0.2568 
     17 C17        21.6444  -28.5557  -45.2721 C.3       10 UNK        -0.0983 
     18 CA         22.3435  -27.2744  -45.7998 C.3       3 UNK         0.0876 
     19 N          21.5705  -26.0804  -45.4850 N.am      3 UNK        -0.4424 
     20 C          20.4374  -25.7048  -46.0805 C.2       2 UNK         0.4918 
     21 O          19.9515  -26.2729  -47.0601 O.2       2 UNK        -0.4875 
     22 CA         19.6862  -24.5374  -45.4167 C.3       2 UNK         0.0481 
     23 CB         18.9665  -23.6543  -46.4509 C.3       2 UNK        -0.1831 
     24 N          18.7057  -25.0572  -44.4619 N.am      2 UNK        -0.4498 
     25 C          19.0033  -25.6649  -43.3045 C.2       1 UNK         0.5027 
     26 O          20.1497  -25.7441  -42.8552 O.2       1 UNK        -0.4969 
     27 C          23.7450  -27.1077  -45.1897 C.2       3 UNK         0.5005 
     28 O          23.9534  -26.2174  -44.3568 O.2       3 UNK        -0.5279 
     29 N          24.6708  -27.9923  -45.5833 N.am      4 UNK        -0.4463 
     30 CA         26.0250  -28.0946  -45.0372 C.3       4 UNK         0.0283 
     31 CB         26.7951  -29.2001  -45.7776 C.3       4 UNK        -0.1875 
     32 C          25.9940  -28.3693  -43.5245 C.2       4 UNK         0.4949 
     33 O          25.3577  -29.3329  -43.0963 O.2       4 UNK        -0.5039 
     34 N          26.6460  -27.4860  -42.7574 N.am      5 UNK        -0.4663 
     35 CA         26.6981  -27.4499  -41.2886 C.3       5 UNK         0.0242 
     36 CB         27.4090  -28.7018  -40.7313 C.3       5 UNK        -0.1982 
     37 C          25.3372  -27.1916  -40.6041 C.2       5 UNK         0.5017 
     38 O          25.2251  -27.4358  -39.4022 O.2       5 UNK        -0.5012 
     39 N          24.3507  -26.6781  -41.3597 N.am      6 UNK        -0.4439 
     40 CA         22.9842  -26.3408  -40.9425 C.3       6 UNK         0.0297 
     41 CB         22.9853  -25.1075  -40.0154 C.3       6 UNK        -0.2006 
     42 C          22.2379  -27.5450  -40.3359 C.2       6 UNK         0.4892 
     43 O          21.9441  -27.5447  -39.1395 O.2       6 UNK        -0.5089 
     44 N          21.9954  -28.5600  -41.1796 N.am      7 UNK        -0.4243 
     45 CA         21.3840  -29.8547  -40.8529 C.3       7 UNK         0.0196 
     46 CB         21.1349  -30.6239  -42.1626 C.3       7 UNK        -0.2007 
     47 C          20.0650  -29.7291  -40.0541 C.2       7 UNK         0.5020 
     48 O          19.1742  -29.0231  -40.5239 O.2       7 UNK        -0.5147 
     49 N          19.8763  -30.3750  -38.8895 N.am      8 UNK        -0.4734 
     50 CA         20.7405  -31.3032  -38.1399 C.3       8 UNK         0.0238 
     51 CB         21.9460  -30.5793  -37.5000 C.3       8 UNK        -0.1912 
     52 C          21.1078  -32.5649  -38.9413 C.2       8 UNK         0.5038 
     53 O          22.2796  -32.9358  -39.0199 O.2       8 UNK        -0.5046 
     54 N          20.0830  -33.1535  -39.5665 N.am      9 UNK        -0.4200 
     55 CA         20.1530  -34.3195  -40.4570 C.3       9 UNK         0.0839 
     56 C          20.6809  -35.5980  -39.7520 C.2       9 UNK         0.5513 
     57 N          21.4334  -36.4292  -40.4588 N.am      9 UNK        -0.7519 
     58 O          20.3755  -35.8633  -38.5910 O.2       9 UNK        -0.4960 
     59 C59        18.7772  -34.5915  -41.1219 C.3       10 UNK        -0.0876 
     60 S60        18.0864  -33.1042  -41.9253 S.3       10 UNK        -0.2414 
     61 C61        18.4504  -33.4283  -43.6796 C.3       10 UNK         0.0169 
     62 H62        17.9683  -25.6451  -38.0907 H         1 UNK         0.0903 
     63 H63        19.0093  -26.9032  -38.7599 H         1 UNK         0.0903 
     64 H64        19.6138  -25.2573  -38.6013 H         1 UNK         0.0903 
     65 H65        18.5137  -27.4139  -40.8755 H         1 UNK         0.3096 
     66 H66        16.9724  -25.6394  -42.5955 H         1 UNK         0.1121 
     67 H67        16.7959  -28.2364  -42.4740 H         1 UNK         0.0849 
     68 H68        18.3013  -28.3034  -43.3479 H         1 UNK         0.0849 
     69 H69        15.3226  -29.5611  -44.3211 H         1 UNK         0.0865 
     70 H70        15.4518  -29.2297  -46.0301 H         1 UNK         0.0865 
     71 H71        16.4619  -31.5461  -43.7695 H         1 UNK         0.1346 
     72 H72        20.2731  -32.5064  -45.4847 H         1 UNK         0.1412 
     73 H73        18.2159  -28.9451  -46.6917 H         1 UNK         0.1426 
     74 H74        20.2705  -29.4834  -47.7458 H         1 UNK         0.0716 
     75 H75        20.6619  -31.1848  -47.8282 H         1 UNK         0.0716 
     76 H76        21.8898  -28.7380  -44.2258 H         1 UNK         0.0695 
     77 H77        20.5620  -28.4319  -45.2843 H         1 UNK         0.0695 
     78 H78        22.4500  -27.3215  -46.8860 H         1 UNK         0.0983 
     79 H79        21.9173  -25.5680  -44.6824 H         1 UNK         0.3095 
     80 H80        20.4044  -23.9133  -44.8804 H         1 UNK         0.0454 
     81 H81        18.2004  -24.2069  -46.9964 H         1 UNK         0.0851 
     82 H82        19.6715  -23.2639  -47.1859 H         1 UNK         0.0851 
     83 H83        18.4873  -22.7981  -45.9761 H         1 UNK         0.0851 
     84 H84        17.7482  -25.0945  -44.7839 H         1 UNK         0.2976 
     85 H85        24.3849  -28.7276  -46.2154 H         1 UNK         0.3116 
     86 H86        26.5290  -27.1435  -45.2212 H         1 UNK         0.0646 
     87 H87        26.8649  -28.9914  -46.8453 H         1 UNK         0.0847 
     88 H88        26.3205  -30.1747  -45.6551 H         1 UNK         0.0847 
     89 H89        27.8142  -29.2856  -45.3981 H         1 UNK         0.0847 
     90 H90        27.1145  -26.7190  -43.2209 H         1 UNK         0.3040 
     91 H91        27.3158  -26.5877  -41.0340 H         1 UNK         0.1015 
     92 H92        26.8102  -29.6024  -40.8665 H         1 UNK         0.0786 
     93 H93        27.6021  -28.6003  -39.6626 H         1 UNK         0.0786 
     94 H94        28.3708  -28.8620  -41.2175 H         1 UNK         0.0786 
     95 H95        24.5410  -26.5337  -42.3464 H         1 UNK         0.3172 
     96 H96        22.4559  -26.0629  -41.8532 H         1 UNK         0.0595 
     97 H97        23.5053  -25.3026  -39.0771 H         1 UNK         0.0839 
     98 H98        21.9658  -24.8114  -39.7667 H         1 UNK         0.0839 
     99 H99        23.4633  -24.2531  -40.4934 H         1 UNK         0.0839 
    100 H100       22.2916  -28.4448  -42.1357 H         1 UNK         0.2998 
    101 H101       22.1325  -30.4057  -40.2925 H         1 UNK         0.0822 
    102 H102       22.0541  -30.7538  -42.7344 H         1 UNK         0.0787 
    103 H103       20.7413  -31.6198  -41.9626 H         1 UNK         0.0787 
    104 H104       20.4085  -30.1163  -42.7995 H         1 UNK         0.0787 
    105 H105       18.9772  -30.2244  -38.4538 H         1 UNK         0.3055 
    106 H106       20.1300  -31.6663  -37.3109 H         1 UNK         0.1106 
    107 H107       22.6614  -30.1968  -38.2251 H         1 UNK         0.0828 
    108 H108       22.4940  -31.2540  -36.8412 H         1 UNK         0.0828 
    109 H109       21.6181  -29.7361  -36.8919 H         1 UNK         0.0828 
    110 H110       19.1626  -32.7552  -39.4542 H         1 UNK         0.2931 
    111 H111       20.8603  -34.0602  -41.2475 H         1 UNK         0.0412 
    112 H112       21.7720  -37.2738  -40.0242 H         1 UNK         0.3472 
    113 H113       21.6810  -36.2252  -41.4148 H         1 UNK         0.3472 
    114 H114       18.0559  -34.9324  -40.3765 H         1 UNK         0.0970 
    115 H115       18.8549  -35.3981  -41.8535 H         1 UNK         0.0970 
    116 H116       17.7451  -34.1660  -44.0639 H         1 UNK         0.0612 
    117 H117       19.4446  -33.8720  -43.7539 H         1 UNK         0.0612 
@<TRIPOS>BOND
     1    1    2 1    
     2    1   62 1    
     3    1   63 1    
     4    1   64 1    
     5    2    3 2    
     6    2    4 am   BACKBONE|DICT|INTERRES
     7    4    5 1    
     8    4   65 1    
     9    5    6 1    
    10    5   25 1    
    11    5   66 1    
    12    6    7 1    
    13    6   67 1    
    14    6   68 1    
    15    7    8 1    
    16    8    9 1    
    17    8   69 1    
    18    8   70 1    
    19    9   10 ar   
    20    9   14 ar   
    21   10   11 ar   
    22   10   71 1    
    23   11   12 ar   
    24   11   61 1    
    25   12   13 ar   
    26   12   72 1    
    27   13   14 ar   
    28   13   15 1    
    29   14   73 1    
    30   15   16 1    
    31   15   74 1    
    32   15   75 1    
    33   16   17 1    
    34   17   18 1    
    35   17   76 1    
    36   17   77 1    
    37   18   19 1    
    38   18   27 1    
    39   18   78 1    
    40   19   20 am   BACKBONE|DICT|INTERRES
    41   19   79 1    
    42   20   21 2    
    43   20   22 1    
    44   22   23 1    
    45   22   24 1    
    46   22   80 1    
    47   23   81 1    
    48   23   82 1    
    49   23   83 1    
    50   24   25 am   BACKBONE|DICT|INTERRES
    51   24   84 1    
    52   25   26 2    
    53   27   28 2    
    54   27   29 am   BACKBONE|DICT|INTERRES
    55   29   30 1    
    56   29   85 1    
    57   30   31 1    
    58   30   32 1    
    59   30   86 1    
    60   31   87 1    
    61   31   88 1    
    62   31   89 1    
    63   32   33 2    
    64   32   34 am   BACKBONE|DICT|INTERRES
    65   34   35 1    
    66   34   90 1    
    67   35   36 1    
    68   35   37 1    
    69   35   91 1    
    70   36   92 1    
    71   36   93 1    
    72   36   94 1    
    73   37   38 2    
    74   37   39 am   BACKBONE|DICT|INTERRES
    75   39   40 1    
    76   39   95 1    
    77   40   41 1    
    78   40   42 1    
    79   40   96 1    
    80   41   97 1    
    81   41   98 1    
    82   41   99 1    
    83   42   43 2    
    84   42   44 am   BACKBONE|DICT|INTERRES
    85   44   45 1    
    86   44  100 1    
    87   45   46 1    
    88   45   47 1    
    89   45  101 1    
    90   46  102 1    
    91   46  103 1    
    92   46  104 1    
    93   47   48 2    
    94   47   49 am   BACKBONE|DICT|INTERRES
    95   49   50 1    
    96   49  105 1    
    97   50   51 1    
    98   50   52 1    
    99   50  106 1    
   100   51  107 1    
   101   51  108 1    
   102   51  109 1    
   103   52   53 2    
   104   52   54 am   BACKBONE|DICT|INTERRES
   105   54   55 1    
   106   54  110 1    
   107   55   56 1    
   108   55   59 1    
   109   55  111 1    
   110   56   57 am   BACKBONE|DICT|INTERRES
   111   56   58 2    
   112   57  112 1    
   113   57  113 1    
   114   59   60 1    
   115   59  114 1    
   116   59  115 1    
   117   60   61 1    
   118   61  116 1    
   119   61  117 1    
@<TRIPOS>SUBSTRUCTURE
     1 UNK         1 GROUP             0       ****    0 ROOT    
