@<TRIPOS>MOLECULE
3R8
117   119    1
SMALL
USER_CHARGES


@<TRIPOS>ATOM
      1 CA         12.7604  -27.3735  -40.8764 C.3       0 UNK        -0.2013 
      2 C          13.5740  -26.7358  -41.9927 C.2       0 UNK         0.4866 
      3 O          13.0902  -25.8189  -42.6575 O.2       0 UNK        -0.5176 
      4 N          14.8060  -27.2087  -42.1984 N.am      1 UNK        -0.4884 
      5 CA         15.7418  -26.7254  -43.2121 C.3       1 UNK         0.0853 
      6 C6         15.3935  -27.1590  -44.6704 C.3       10 UNK        -0.0849 
      7 S7         14.6787  -28.8257  -44.9407 S.3       10 UNK        -0.2776 
      8 C8         15.8542  -29.9908  -44.1639 C.3       10 UNK         0.0316 
      9 C9         17.2594  -30.0441  -44.7676 C.ar      10 UNK        -0.0863 
     10 C10        18.2994  -30.5539  -43.9838 C.ar      10 UNK        -0.1009 
     11 C11        19.5915  -30.6873  -44.4994 C.ar      10 UNK        -0.0712 
     12 C12        19.8472  -30.2972  -45.8175 C.ar      10 UNK        -0.0894 
     13 C13        18.8170  -29.7973  -46.6203 C.ar      10 UNK        -0.0745 
     14 C14        17.5292  -29.6701  -46.0900 C.ar      10 UNK        -0.0972 
     15 C15        19.0682  -29.4599  -48.0832 C.3       10 UNK         0.0209 
     16 S16        19.3332  -27.6800  -48.3483 S.3       10 UNK        -0.2568 
     17 C17        21.0860  -27.4834  -47.8828 C.3       10 UNK        -0.0983 
     18 CA         21.2742  -26.4637  -46.7354 C.3       3 UNK         0.0876 
     19 N          20.5848  -26.8850  -45.5098 N.am      3 UNK        -0.4424 
     20 C          20.2855  -26.0699  -44.4932 C.2       2 UNK         0.4918 
     21 O          20.5135  -24.8594  -44.4875 O.2       2 UNK        -0.4875 
     22 CA         19.5776  -26.7127  -43.3014 C.3       2 UNK         0.0481 
     23 CB         20.1296  -26.2031  -41.9550 C.3       2 UNK        -0.1831 
     24 N          18.1523  -26.4401  -43.4279 N.am      2 UNK        -0.4498 
     25 C          17.1736  -27.1020  -42.8007 C.2       1 UNK         0.5027 
     26 O          17.3592  -27.9748  -41.9458 O.2       1 UNK        -0.4969 
     27 C          22.7751  -26.1781  -46.5065 C.2       3 UNK         0.5005 
     28 O          23.3783  -25.4525  -47.2992 O.2       3 UNK        -0.5279 
     29 N          23.3507  -26.7415  -45.4384 N.am      4 UNK        -0.4463 
     30 CA         24.7285  -26.5543  -45.0009 C.3       4 UNK         0.0283 
     31 CB         25.6549  -27.5169  -45.7671 C.3       4 UNK        -0.1875 
     32 C          24.7865  -26.8198  -43.4936 C.2       4 UNK         0.4949 
     33 O          23.8679  -27.4322  -42.9423 O.2       4 UNK        -0.5039 
     34 N          25.8843  -26.4038  -42.8521 N.am      5 UNK        -0.4663 
     35 CA         26.1718  -26.6404  -41.4322 C.3       5 UNK         0.0242 
     36 CB         27.1703  -25.5743  -40.9425 C.3       5 UNK        -0.1982 
     37 C          26.6661  -28.0809  -41.1777 C.2       5 UNK         0.5017 
     38 O          27.7457  -28.2779  -40.6177 O.2       5 UNK        -0.5012 
     39 N          25.8717  -29.0652  -41.6168 N.am      6 UNK        -0.4439 
     40 CA         26.1765  -30.4975  -41.5528 C.3       6 UNK         0.0297 
     41 CB         25.4362  -31.2113  -42.6967 C.3       6 UNK        -0.2006 
     42 C          25.8342  -31.1460  -40.1986 C.2       6 UNK         0.4892 
     43 O          26.0976  -32.3367  -40.0306 O.2       6 UNK        -0.5089 
     44 N          25.2193  -30.3851  -39.2790 N.am      7 UNK        -0.4243 
     45 CA         24.7769  -30.7428  -37.9191 C.3       7 UNK         0.0196 
     46 CB         25.9563  -31.2193  -37.0483 C.3       7 UNK        -0.2007 
     47 C          23.6018  -31.7384  -37.8514 C.2       7 UNK         0.5020 
     48 O          22.8097  -31.6623  -36.9129 O.2       7 UNK        -0.5147 
     49 N          23.4816  -32.6283  -38.8435 N.am      8 UNK        -0.4734 
     50 CA         22.3792  -33.5818  -39.0086 C.3       8 UNK         0.0238 
     51 CB         22.8123  -34.6651  -40.0106 C.3       8 UNK        -0.1912 
     52 C          21.0572  -32.9307  -39.4615 C.2       8 UNK         0.5038 
     53 O          20.0112  -33.5752  -39.3679 O.2       8 UNK        -0.5046 
     54 N          21.1291  -31.6912  -39.9631 N.am      9 UNK        -0.4200 
     55 CA         19.9920  -30.8756  -40.4103 C.3       9 UNK         0.0839 
     56 C          19.0727  -30.3822  -39.2506 C.2       9 UNK         0.5513 
     57 N          18.0313  -29.6171  -39.5538 N.am      9 UNK        -0.7519 
     58 O          19.2909  -30.6660  -38.0747 O.2       9 UNK        -0.4960 
     59 C59        20.4554  -29.7001  -41.3123 C.3       10 UNK        -0.0876 
     60 S60        21.6163  -30.1237  -42.6592 S.3       10 UNK        -0.2414 
     61 C61        20.6899  -31.3278  -43.6609 C.3       10 UNK         0.0169 
     62 H62        11.8428  -27.8012  -41.2794 H         1 UNK         0.0903 
     63 H63        13.3115  -28.1677  -40.3730 H         1 UNK         0.0903 
     64 H64        12.4900  -26.6241  -40.1330 H         1 UNK         0.0903 
     65 H65        15.1960  -27.9274  -41.6009 H         1 UNK         0.3096 
     66 H66        15.7121  -25.6337  -43.1737 H         1 UNK         0.1121 
     67 H67        16.2490  -27.0415  -45.3381 H         1 UNK         0.0849 
     68 H68        14.6509  -26.4586  -45.0554 H         1 UNK         0.0849 
     69 H69        15.9039  -29.7831  -43.0957 H         1 UNK         0.0865 
     70 H70        15.4258  -30.9904  -44.2453 H         1 UNK         0.0865 
     71 H71        18.0946  -30.8735  -42.9717 H         1 UNK         0.1346 
     72 H72        20.8394  -30.4225  -46.2294 H         1 UNK         0.1412 
     73 H73        16.7349  -29.3040  -46.7252 H         1 UNK         0.1426 
     74 H74        18.2069  -29.7715  -48.6761 H         1 UNK         0.0716 
     75 H75        19.9162  -30.0249  -48.4733 H         1 UNK         0.0716 
     76 H76        21.5170  -28.4490  -47.6134 H         1 UNK         0.0695 
     77 H77        21.6194  -27.1547  -48.7771 H         1 UNK         0.0695 
     78 H78        20.8303  -25.5182  -47.0562 H         1 UNK         0.0983 
     79 H79        20.3034  -27.8548  -45.4648 H         1 UNK         0.3095 
     80 H80        19.7318  -27.7883  -43.3717 H         1 UNK         0.0454 
     81 H81        19.9743  -25.1305  -41.8346 H         1 UNK         0.0851 
     82 H82        21.2021  -26.3899  -41.8822 H         1 UNK         0.0851 
     83 H83        19.6564  -26.7028  -41.1102 H         1 UNK         0.0851 
     84 H84        17.9146  -25.7310  -44.1091 H         1 UNK         0.2976 
     85 H85        22.7878  -27.2825  -44.7926 H         1 UNK         0.3116 
     86 H86        25.0316  -25.5207  -45.1813 H         1 UNK         0.0646 
     87 H87        25.3817  -28.5590  -45.5956 H         1 UNK         0.0847 
     88 H88        26.6938  -27.3968  -45.4582 H         1 UNK         0.0847 
     89 H89        25.6169  -27.3345  -46.8412 H         1 UNK         0.0847 
     90 H90        26.6088  -25.9411  -43.3833 H         1 UNK         0.3040 
     91 H91        25.2490  -26.5149  -40.8609 H         1 UNK         0.1015 
     92 H92        27.3744  -25.6890  -39.8769 H         1 UNK         0.0786 
     93 H93        26.7781  -24.5674  -41.0870 H         1 UNK         0.0786 
     94 H94        28.1243  -25.6419  -41.4669 H         1 UNK         0.0786 
     95 H95        25.0041  -28.7930  -42.0724 H         1 UNK         0.3172 
     96 H96        27.2483  -30.6336  -41.7114 H         1 UNK         0.0595 
     97 H97        25.7046  -32.2678  -42.7388 H         1 UNK         0.0839 
     98 H98        25.6858  -30.7777  -43.6653 H         1 UNK         0.0839 
     99 H99        24.3550  -31.1574  -42.5735 H         1 UNK         0.0839 
    100 H100       25.0231  -29.4324  -39.5513 H         1 UNK         0.2998 
    101 H101       24.4085  -29.8129  -37.4825 H         1 UNK         0.0822 
    102 H102       25.6416  -31.3620  -36.0136 H         1 UNK         0.0787 
    103 H103       26.3631  -32.1698  -37.3943 H         1 UNK         0.0787 
    104 H104       26.7658  -30.4892  -37.0430 H         1 UNK         0.0787 
    105 H105       24.2353  -32.6640  -39.5232 H         1 UNK         0.3055 
    106 H106       22.1893  -34.0572  -38.0437 H         1 UNK         0.1106 
    107 H107       22.0315  -35.4165  -40.1371 H         1 UNK         0.0828 
    108 H108       23.0218  -34.2435  -40.9946 H         1 UNK         0.0828 
    109 H109       23.7078  -35.1856  -39.6705 H         1 UNK         0.0828 
    110 H110       22.0336  -31.2482  -39.9995 H         1 UNK         0.2931 
    111 H111       19.3605  -31.5307  -41.0111 H         1 UNK         0.0412 
    112 H112       17.8540  -29.2886  -40.4967 H         1 UNK         0.3472 
    113 H113       17.4393  -29.2962  -38.8043 H         1 UNK         0.3472 
    114 H114       20.9340  -28.9294  -40.7056 H         1 UNK         0.0970 
    115 H115       19.5853  -29.2302  -41.7612 H         1 UNK         0.0970 
    116 H116       21.3990  -31.8330  -44.3183 H         1 UNK         0.0612 
    117 H117       20.2778  -32.1101  -43.0235 H         1 UNK         0.0612 
@<TRIPOS>BOND
     1    1    2 1    
     2    1   62 1    
     3    1   63 1    
     4    1   64 1    
     5    2    3 2    
     6    2    4 am   BACKBONE|DICT|INTERRES
     7    4    5 1    
     8    4   65 1    
     9    5    6 1    
    10    5   25 1    
    11    5   66 1    
    12    6    7 1    
    13    6   67 1    
    14    6   68 1    
    15    7    8 1    
    16    8    9 1    
    17    8   69 1    
    18    8   70 1    
    19    9   10 ar   
    20    9   14 ar   
    21   10   11 ar   
    22   10   71 1    
    23   11   12 ar   
    24   11   61 1    
    25   12   13 ar   
    26   12   72 1    
    27   13   14 ar   
    28   13   15 1    
    29   14   73 1    
    30   15   16 1    
    31   15   74 1    
    32   15   75 1    
    33   16   17 1    
    34   17   18 1    
    35   17   76 1    
    36   17   77 1    
    37   18   19 1    
    38   18   27 1    
    39   18   78 1    
    40   19   20 am   BACKBONE|DICT|INTERRES
    41   19   79 1    
    42   20   21 2    
    43   20   22 1    
    44   22   23 1    
    45   22   24 1    
    46   22   80 1    
    47   23   81 1    
    48   23   82 1    
    49   23   83 1    
    50   24   25 am   BACKBONE|DICT|INTERRES
    51   24   84 1    
    52   25   26 2    
    53   27   28 2    
    54   27   29 am   BACKBONE|DICT|INTERRES
    55   29   30 1    
    56   29   85 1    
    57   30   31 1    
    58   30   32 1    
    59   30   86 1    
    60   31   87 1    
    61   31   88 1    
    62   31   89 1    
    63   32   33 2    
    64   32   34 am   BACKBONE|DICT|INTERRES
    65   34   35 1    
    66   34   90 1    
    67   35   36 1    
    68   35   37 1    
    69   35   91 1    
    70   36   92 1    
    71   36   93 1    
    72   36   94 1    
    73   37   38 2    
    74   37   39 am   BACKBONE|DICT|INTERRES
    75   39   40 1    
    76   39   95 1    
    77   40   41 1    
    78   40   42 1    
    79   40   96 1    
    80   41   97 1    
    81   41   98 1    
    82   41   99 1    
    83   42   43 2    
    84   42   44 am   BACKBONE|DICT|INTERRES
    85   44   45 1    
    86   44  100 1    
    87   45   46 1    
    88   45   47 1    
    89   45  101 1    
    90   46  102 1    
    91   46  103 1    
    92   46  104 1    
    93   47   48 2    
    94   47   49 am   BACKBONE|DICT|INTERRES
    95   49   50 1    
    96   49  105 1    
    97   50   51 1    
    98   50   52 1    
    99   50  106 1    
   100   51  107 1    
   101   51  108 1    
   102   51  109 1    
   103   52   53 2    
   104   52   54 am   BACKBONE|DICT|INTERRES
   105   54   55 1    
   106   54  110 1    
   107   55   56 1    
   108   55   59 1    
   109   55  111 1    
   110   56   57 am   BACKBONE|DICT|INTERRES
   111   56   58 2    
   112   57  112 1    
   113   57  113 1    
   114   59   60 1    
   115   59  114 1    
   116   59  115 1    
   117   60   61 1    
   118   61  116 1    
   119   61  117 1    
@<TRIPOS>SUBSTRUCTURE
     1 UNK         1 GROUP             0       ****    0 ROOT    
