@<TRIPOS>MOLECULE
3R8
117   119    1
SMALL
USER_CHARGES


@<TRIPOS>ATOM
      1 CA         19.5785  -28.0637  -42.5660 C.3       0 UNK        -0.2013 
      2 C          19.0785  -26.6702  -42.9066 C.2       0 UNK         0.4866 
      3 O          19.7578  -25.6925  -42.5990 O.2       0 UNK        -0.5176 
      4 N          17.9039  -26.5699  -43.5455 N.am      1 UNK        -0.4884 
      5 CA         17.2542  -25.3040  -43.9257 C.3       1 UNK         0.0853 
      6 C6         15.8207  -25.5215  -44.4665 C.3       10 UNK        -0.0849 
      7 S7         14.7485  -26.3913  -43.2746 S.3       10 UNK        -0.2776 
      8 C8         14.3158  -27.9037  -44.1934 C.3       10 UNK         0.0316 
      9 C9         15.4531  -28.9170  -44.2297 C.ar      10 UNK        -0.0863 
     10 C10        15.7516  -29.6685  -43.0895 C.ar      10 UNK        -0.1009 
     11 C11        16.7288  -30.6678  -43.1285 C.ar      10 UNK        -0.0712 
     12 C12        17.4237  -30.9015  -44.3196 C.ar      10 UNK        -0.0894 
     13 C13        17.1437  -30.1498  -45.4653 C.ar      10 UNK        -0.0745 
     14 C14        16.1584  -29.1573  -45.4137 C.ar      10 UNK        -0.0972 
     15 C15        17.8516  -30.4607  -46.7781 C.3       10 UNK         0.0209 
     16 S16        18.9171  -29.0996  -47.3443 S.3       10 UNK        -0.2568 
     17 C17        20.3474  -29.2488  -46.2220 C.3       10 UNK        -0.0983 
     18 CA         21.4043  -28.1226  -46.4330 C.3       3 UNK         0.0876 
     19 N          20.8165  -26.7916  -46.2913 N.am      3 UNK        -0.4424 
     20 C          20.5146  -25.9494  -47.2865 C.2       2 UNK         0.4918 
     21 O          20.8271  -26.1268  -48.4650 O.2       2 UNK        -0.4875 
     22 CA         19.6444  -24.7468  -46.8850 C.3       2 UNK         0.0481 
     23 CB         18.9501  -24.0674  -48.0813 C.3       2 UNK        -0.1831 
     24 N          18.6518  -25.2146  -45.9191 N.am      2 UNK        -0.4498 
     25 C          18.0890  -24.4980  -44.9420 C.2       1 UNK         0.5027 
     26 O          18.2278  -23.2817  -44.8053 O.2       1 UNK        -0.4969 
     27 C          22.6101  -28.2103  -45.4751 C.2       3 UNK         0.5005 
     28 O          23.3007  -27.2065  -45.2744 O.2       3 UNK        -0.5279 
     29 N          22.8541  -29.3898  -44.8869 N.am      4 UNK        -0.4463 
     30 CA         23.9218  -29.6479  -43.9175 C.3       4 UNK         0.0283 
     31 CB         24.2185  -31.1576  -43.8865 C.3       4 UNK        -0.1875 
     32 C          23.5854  -29.0719  -42.5274 C.2       4 UNK         0.4949 
     33 O          23.3140  -29.8201  -41.5853 O.2       4 UNK        -0.5039 
     34 N          23.5939  -27.7370  -42.4354 N.am      5 UNK        -0.4663 
     35 CA         23.4704  -26.9682  -41.1953 C.3       5 UNK         0.0242 
     36 CB         23.3443  -25.4772  -41.5446 C.3       5 UNK        -0.1982 
     37 C          24.6744  -27.2060  -40.2666 C.2       5 UNK         0.5017 
     38 O          25.7666  -27.5147  -40.7498 O.2       5 UNK        -0.5012 
     39 N          24.4487  -27.0912  -38.9498 N.am      6 UNK        -0.4439 
     40 CA         25.3737  -27.3715  -37.8345 C.3       6 UNK         0.0297 
     41 CB         26.6467  -26.5049  -37.9047 C.3       6 UNK        -0.2006 
     42 C          25.7211  -28.8646  -37.6581 C.2       6 UNK         0.4892 
     43 O          25.8187  -29.3270  -36.5215 O.2       6 UNK        -0.5089 
     44 N          25.8450  -29.6014  -38.7696 N.am      7 UNK        -0.4243 
     45 CA         25.9544  -31.0617  -38.8296 C.3       7 UNK         0.0196 
     46 CB         26.4684  -31.4582  -40.2224 C.3       7 UNK        -0.2007 
     47 C          24.6287  -31.7865  -38.5165 C.2       7 UNK         0.5020 
     48 O          24.6532  -32.9949  -38.2837 O.2       7 UNK        -0.5147 
     49 N          23.5146  -31.0382  -38.5033 N.am      8 UNK        -0.4734 
     50 CA         22.1427  -31.4629  -38.2064 C.3       8 UNK         0.0238 
     51 CB         22.0247  -32.0339  -36.7757 C.3       8 UNK        -0.1912 
     52 C          21.5630  -32.3905  -39.2882 C.2       8 UNK         0.5038 
     53 O          21.0300  -33.4557  -38.9683 O.2       8 UNK        -0.5046 
     54 N          21.6480  -31.9339  -40.5449 N.am      9 UNK        -0.4200 
     55 CA         21.0734  -32.5630  -41.7449 C.3       9 UNK         0.0839 
     56 C          21.8275  -33.8557  -42.1816 C.2       9 UNK         0.5513 
     57 N          21.3315  -34.5659  -43.1868 N.am      9 UNK        -0.7519 
     58 O          22.8841  -34.2048  -41.6597 O.2       9 UNK        -0.4960 
     59 C59        19.5265  -32.7490  -41.6652 C.3       10 UNK        -0.0876 
     60 S60        18.6339  -31.2287  -41.1815 S.3       10 UNK        -0.2414 
     61 C61        16.9879  -31.5258  -41.8971 C.3       10 UNK         0.0169 
     62 H62        18.9612  -28.8355  -43.0217 H         1 UNK         0.0903 
     63 H63        20.6020  -28.1963  -42.9135 H         1 UNK         0.0903 
     64 H64        19.5664  -28.2125  -41.4867 H         1 UNK         0.0903 
     65 H65        17.3665  -27.4060  -43.7366 H         1 UNK         0.3096 
     66 H66        17.1853  -24.6946  -43.0215 H         1 UNK         0.1121 
     67 H67        15.8432  -26.0692  -45.4104 H         1 UNK         0.0849 
     68 H68        15.3508  -24.5611  -44.6885 H         1 UNK         0.0849 
     69 H69        13.4501  -28.3633  -43.7140 H         1 UNK         0.0865 
     70 H70        13.9909  -27.6419  -45.2017 H         1 UNK         0.0865 
     71 H71        15.1975  -29.4921  -42.1772 H         1 UNK         0.1346 
     72 H72        18.1687  -31.6835  -44.3584 H         1 UNK         0.1412 
     73 H73        15.9228  -28.5953  -46.3075 H         1 UNK         0.1426 
     74 H74        18.4442  -31.3736  -46.7006 H         1 UNK         0.0716 
     75 H75        17.0989  -30.6530  -47.5439 H         1 UNK         0.0716 
     76 H76        20.7892  -30.2315  -46.3955 H         1 UNK         0.0695 
     77 H77        19.9764  -29.2455  -45.1968 H         1 UNK         0.0695 
     78 H78        21.8197  -28.2328  -47.4371 H         1 UNK         0.0983 
     79 H79        20.6233  -26.4992  -45.3447 H         1 UNK         0.3095 
     80 H80        20.3037  -24.0229  -46.4017 H         1 UNK         0.0454 
     81 H81        18.3503  -23.2151  -47.7622 H         1 UNK         0.0851 
     82 H82        18.2944  -24.7601  -48.6099 H         1 UNK         0.0851 
     83 H83        19.6820  -23.6954  -48.7992 H         1 UNK         0.0851 
     84 H84        18.4630  -26.2082  -45.9458 H         1 UNK         0.2976 
     85 H85        22.2386  -30.1642  -45.0876 H         1 UNK         0.3116 
     86 H86        24.8313  -29.1490  -44.2599 H         1 UNK         0.0646 
     87 H87        23.3513  -31.7386  -43.5803 H         1 UNK         0.0847 
     88 H88        25.0247  -31.3847  -43.1896 H         1 UNK         0.0847 
     89 H89        24.5330  -31.5193  -44.8655 H         1 UNK         0.0847 
     90 H90        23.7797  -27.2149  -43.2854 H         1 UNK         0.3040 
     91 H91        22.5599  -27.2943  -40.6876 H         1 UNK         0.1015 
     92 H92        24.2327  -25.1071  -42.0583 H         1 UNK         0.0786 
     93 H93        23.2100  -24.8725  -40.6467 H         1 UNK         0.0786 
     94 H94        22.4841  -25.2927  -42.1887 H         1 UNK         0.0786 
     95 H95        23.5149  -26.8312  -38.6609 H         1 UNK         0.3172 
     96 H96        24.8339  -27.0750  -36.9336 H         1 UNK         0.0595 
     97 H97        27.2802  -26.7699  -38.7515 H         1 UNK         0.0839 
     98 H98        27.2488  -26.6299  -37.0038 H         1 UNK         0.0839 
     99 H99        26.4024  -25.4459  -37.9863 H         1 UNK         0.0839 
    100 H100       25.8011  -29.1068  -39.6561 H         1 UNK         0.2998 
    101 H101       26.6860  -31.3830  -38.0852 H         1 UNK         0.0822 
    102 H102       27.4427  -31.0147  -40.4284 H         1 UNK         0.0787 
    103 H103       26.5788  -32.5401  -40.3081 H         1 UNK         0.0787 
    104 H104       25.7802  -31.1365  -41.0035 H         1 UNK         0.0787 
    105 H105       23.6227  -30.0682  -38.7627 H         1 UNK         0.3055 
    106 H106       21.5319  -30.5589  -38.2380 H         1 UNK         0.1106 
    107 H107       20.9814  -32.2182  -36.5167 H         1 UNK         0.0828 
    108 H108       22.5544  -32.9807  -36.6677 H         1 UNK         0.0828 
    109 H109       22.4238  -31.3394  -36.0365 H         1 UNK         0.0828 
    110 H110       22.1882  -31.0920  -40.7252 H         1 UNK         0.2931 
    111 H111       21.2621  -31.8420  -42.5403 H         1 UNK         0.0412 
    112 H112       20.4844  -34.2962  -43.6603 H         1 UNK         0.3472 
    113 H113       21.8251  -35.3935  -43.4840 H         1 UNK         0.3472 
    114 H114       19.2688  -33.5381  -40.9571 H         1 UNK         0.0970 
    115 H115       19.1401  -33.0759  -42.6306 H         1 UNK         0.0970 
    116 H116       16.8640  -32.5790  -42.1521 H         1 UNK         0.0612 
    117 H117       16.2442  -31.3174  -41.1264 H         1 UNK         0.0612 
@<TRIPOS>BOND
     1    1    2 1    
     2    1   62 1    
     3    1   63 1    
     4    1   64 1    
     5    2    3 2    
     6    2    4 am   BACKBONE|DICT|INTERRES
     7    4    5 1    
     8    4   65 1    
     9    5    6 1    
    10    5   25 1    
    11    5   66 1    
    12    6    7 1    
    13    6   67 1    
    14    6   68 1    
    15    7    8 1    
    16    8    9 1    
    17    8   69 1    
    18    8   70 1    
    19    9   10 ar   
    20    9   14 ar   
    21   10   11 ar   
    22   10   71 1    
    23   11   12 ar   
    24   11   61 1    
    25   12   13 ar   
    26   12   72 1    
    27   13   14 ar   
    28   13   15 1    
    29   14   73 1    
    30   15   16 1    
    31   15   74 1    
    32   15   75 1    
    33   16   17 1    
    34   17   18 1    
    35   17   76 1    
    36   17   77 1    
    37   18   19 1    
    38   18   27 1    
    39   18   78 1    
    40   19   20 am   BACKBONE|DICT|INTERRES
    41   19   79 1    
    42   20   21 2    
    43   20   22 1    
    44   22   23 1    
    45   22   24 1    
    46   22   80 1    
    47   23   81 1    
    48   23   82 1    
    49   23   83 1    
    50   24   25 am   BACKBONE|DICT|INTERRES
    51   24   84 1    
    52   25   26 2    
    53   27   28 2    
    54   27   29 am   BACKBONE|DICT|INTERRES
    55   29   30 1    
    56   29   85 1    
    57   30   31 1    
    58   30   32 1    
    59   30   86 1    
    60   31   87 1    
    61   31   88 1    
    62   31   89 1    
    63   32   33 2    
    64   32   34 am   BACKBONE|DICT|INTERRES
    65   34   35 1    
    66   34   90 1    
    67   35   36 1    
    68   35   37 1    
    69   35   91 1    
    70   36   92 1    
    71   36   93 1    
    72   36   94 1    
    73   37   38 2    
    74   37   39 am   BACKBONE|DICT|INTERRES
    75   39   40 1    
    76   39   95 1    
    77   40   41 1    
    78   40   42 1    
    79   40   96 1    
    80   41   97 1    
    81   41   98 1    
    82   41   99 1    
    83   42   43 2    
    84   42   44 am   BACKBONE|DICT|INTERRES
    85   44   45 1    
    86   44  100 1    
    87   45   46 1    
    88   45   47 1    
    89   45  101 1    
    90   46  102 1    
    91   46  103 1    
    92   46  104 1    
    93   47   48 2    
    94   47   49 am   BACKBONE|DICT|INTERRES
    95   49   50 1    
    96   49  105 1    
    97   50   51 1    
    98   50   52 1    
    99   50  106 1    
   100   51  107 1    
   101   51  108 1    
   102   51  109 1    
   103   52   53 2    
   104   52   54 am   BACKBONE|DICT|INTERRES
   105   54   55 1    
   106   54  110 1    
   107   55   56 1    
   108   55   59 1    
   109   55  111 1    
   110   56   57 am   BACKBONE|DICT|INTERRES
   111   56   58 2    
   112   57  112 1    
   113   57  113 1    
   114   59   60 1    
   115   59  114 1    
   116   59  115 1    
   117   60   61 1    
   118   61  116 1    
   119   61  117 1    
@<TRIPOS>SUBSTRUCTURE
     1 UNK         1 GROUP             0       ****    0 ROOT    
