@<TRIPOS>MOLECULE
3R8
117   119    1
SMALL
USER_CHARGES


@<TRIPOS>ATOM
      1 CA         16.1772  -24.0039  -41.8631 C.3       0 UNK        -0.2013 
      2 C          16.7563  -25.2731  -42.4688 C.2       0 UNK         0.4866 
      3 O          17.4715  -25.2046  -43.4688 O.2       0 UNK        -0.5176 
      4 N          16.4632  -26.4333  -41.8677 N.am      1 UNK        -0.4884 
      5 CA         16.9159  -27.7619  -42.3015 C.3       1 UNK         0.0853 
      6 C6         15.9546  -28.8740  -41.8116 C.3       10 UNK        -0.0849 
      7 S7         14.3890  -28.8150  -42.7494 S.3       10 UNK        -0.2776 
      8 C8         14.6171  -30.1560  -43.9682 C.3       10 UNK         0.0316 
      9 C9         15.9399  -30.0548  -44.7200 C.ar      10 UNK        -0.0863 
     10 C10        16.9898  -30.9216  -44.4009 C.ar      10 UNK        -0.1009 
     11 C11        18.2110  -30.8327  -45.0711 C.ar      10 UNK        -0.0712 
     12 C12        18.3743  -29.8852  -46.0812 C.ar      10 UNK        -0.0894 
     13 C13        17.3458  -28.9920  -46.3949 C.ar      10 UNK        -0.0745 
     14 C14        16.1242  -29.0900  -45.7172 C.ar      10 UNK        -0.0972 
     15 C15        17.5499  -27.9287  -47.4670 C.3       10 UNK         0.0209 
     16 S16        18.5963  -26.5484  -46.8879 S.3       10 UNK        -0.2568 
     17 C17        20.2779  -27.1557  -47.2720 C.3       10 UNK        -0.0983 
     18 CA         21.3240  -26.9520  -46.1415 C.3       3 UNK         0.0876 
     19 N          20.8124  -27.2462  -44.7934 N.am      3 UNK        -0.4424 
     20 C          21.4328  -26.8947  -43.6542 C.2       2 UNK         0.4918 
     21 O          22.5166  -26.3101  -43.6271 O.2       2 UNK        -0.4875 
     22 CA         20.7212  -27.2264  -42.3309 C.3       2 UNK         0.0481 
     23 CB         21.0968  -26.2500  -41.2006 C.3       2 UNK        -0.1831 
     24 N          19.2742  -27.2152  -42.5146 N.am      2 UNK        -0.4498 
     25 C          18.3866  -28.0086  -41.9088 C.2       1 UNK         0.5027 
     26 O          18.6829  -28.8684  -41.0758 O.2       1 UNK        -0.4969 
     27 C          22.6114  -27.7424  -46.4669 C.2       3 UNK         0.5005 
     28 O          23.4251  -27.2781  -47.2674 O.2       3 UNK        -0.5279 
     29 N          22.7664  -28.9124  -45.8359 N.am      4 UNK        -0.4463 
     30 CA         23.9629  -29.7458  -45.8401 C.3       4 UNK         0.0283 
     31 CB         23.6002  -31.1312  -46.3996 C.3       4 UNK        -0.1875 
     32 C          24.4595  -29.8681  -44.3945 C.2       4 UNK         0.4949 
     33 O          23.6815  -29.6625  -43.4607 O.2       4 UNK        -0.5039 
     34 N          25.7480  -30.1926  -44.2276 N.am      5 UNK        -0.4663 
     35 CA         26.4678  -30.4598  -42.9676 C.3       5 UNK         0.0242 
     36 CB         25.8766  -31.6967  -42.2600 C.3       5 UNK        -0.1982 
     37 C          26.5816  -29.2842  -41.9734 C.2       5 UNK         0.5017 
     38 O          27.4561  -29.3296  -41.1081 O.2       5 UNK        -0.5012 
     39 N          25.6973  -28.2830  -42.0752 N.am      6 UNK        -0.4439 
     40 CA         25.5206  -27.0885  -41.2367 C.3       6 UNK         0.0297 
     41 CB         26.7966  -26.2267  -41.1844 C.3       6 UNK        -0.2006 
     42 C          24.9878  -27.3848  -39.8231 C.2       6 UNK         0.4892 
     43 O          24.1682  -26.6183  -39.3177 O.2       6 UNK        -0.5089 
     44 N          25.4133  -28.4992  -39.2182 N.am      7 UNK        -0.4243 
     45 CA         25.0011  -28.9857  -37.8998 C.3       7 UNK         0.0196 
     46 CB         26.1081  -29.9081  -37.3541 C.3       7 UNK        -0.2007 
     47 C          23.6121  -29.6629  -37.9084 C.2       7 UNK         0.5020 
     48 O          23.4647  -30.7455  -37.3406 O.2       7 UNK        -0.5147 
     49 N          22.6253  -29.0033  -38.5348 N.am      8 UNK        -0.4734 
     50 CA         21.2028  -29.3624  -38.6288 C.3       8 UNK         0.0238 
     51 CB         20.5132  -29.1438  -37.2660 C.3       8 UNK        -0.1912 
     52 C          20.9586  -30.7790  -39.1853 C.2       8 UNK         0.5038 
     53 O          20.6493  -31.6960  -38.4204 O.2       8 UNK        -0.5046 
     54 N          21.1065  -30.9317  -40.5081 N.am      9 UNK        -0.4200 
     55 CA         20.8210  -32.1781  -41.2388 C.3       9 UNK         0.0839 
     56 C          19.3413  -32.6632  -41.1727 C.2       9 UNK         0.5513 
     57 N          18.3688  -31.7940  -40.9228 N.am      9 UNK        -0.7519 
     58 O          19.0786  -33.8506  -41.3450 O.2       9 UNK        -0.4960 
     59 C59        21.3417  -32.1236  -42.6999 C.3       10 UNK        -0.0876 
     60 S60        20.5743  -30.7967  -43.6929 S.3       10 UNK        -0.2414 
     61 C61        19.3696  -31.7323  -44.6815 C.3       10 UNK         0.0169 
     62 H62        16.9806  -23.3317  -41.5628 H         1 UNK         0.0903 
     63 H63        15.5576  -23.4884  -42.5964 H         1 UNK         0.0903 
     64 H64        15.5633  -24.2123  -40.9871 H         1 UNK         0.0903 
     65 H65        15.8824  -26.4254  -41.0411 H         1 UNK         0.3096 
     66 H66        16.9082  -27.7776  -43.3931 H         1 UNK         0.1121 
     67 H67        16.3941  -29.8658  -41.9203 H         1 UNK         0.0849 
     68 H68        15.7419  -28.7626  -40.7471 H         1 UNK         0.0849 
     69 H69        14.5413  -31.1160  -43.4548 H         1 UNK         0.0865 
     70 H70        13.7921  -30.1305  -44.6814 H         1 UNK         0.0865 
     71 H71        16.8649  -31.6558  -43.6165 H         1 UNK         0.1346 
     72 H72        19.3188  -29.8417  -46.5995 H         1 UNK         0.1412 
     73 H73        15.3191  -28.4071  -45.9531 H         1 UNK         0.1426 
     74 H74        17.9801  -28.3775  -48.3635 H         1 UNK         0.0716 
     75 H75        16.5860  -27.5190  -47.7727 H         1 UNK         0.0716 
     76 H76        20.6119  -26.6269  -48.1667 H         1 UNK         0.0695 
     77 H77        20.2280  -28.2002  -47.5737 H         1 UNK         0.0695 
     78 H78        21.5989  -25.8947  -46.1434 H         1 UNK         0.0983 
     79 H79        19.9198  -27.7161  -44.7443 H         1 UNK         0.3095 
     80 H80        21.0454  -28.2291  -42.0481 H         1 UNK         0.0454 
     81 H81        20.5839  -26.4912  -40.2704 H         1 UNK         0.0851 
     82 H82        20.8422  -25.2222  -41.4615 H         1 UNK         0.0851 
     83 H83        22.1669  -26.2775  -40.9986 H         1 UNK         0.0851 
     84 H84        18.9029  -26.4887  -43.1236 H         1 UNK         0.2976 
     85 H85        22.0880  -29.1633  -45.1272 H         1 UNK         0.3116 
     86 H86        24.7499  -29.2974  -46.4500 H         1 UNK         0.0646 
     87 H87        23.2158  -31.0580  -47.4170 H         1 UNK         0.0847 
     88 H88        24.4731  -31.7844  -46.4294 H         1 UNK         0.0847 
     89 H89        22.8423  -31.6273  -45.7915 H         1 UNK         0.0847 
     90 H90        26.3101  -30.2970  -45.0620 H         1 UNK         0.3040 
     91 H91        27.4914  -30.7040  -43.2573 H         1 UNK         0.1015 
     92 H92        24.8634  -31.5148  -41.8997 H         1 UNK         0.0786 
     93 H93        26.4796  -31.9779  -41.3954 H         1 UNK         0.0786 
     94 H94        25.8461  -32.5590  -42.9260 H         1 UNK         0.0786 
     95 H95        24.9463  -28.4485  -42.7405 H         1 UNK         0.3172 
     96 H96        24.7511  -26.4995  -41.7386 H         1 UNK         0.0595 
     97 H97        27.6111  -26.7290  -40.6619 H         1 UNK         0.0839 
     98 H98        26.6081  -25.2893  -40.6595 H         1 UNK         0.0839 
     99 H99        27.1449  -25.9728  -42.1855 H         1 UNK         0.0839 
    100 H100       26.1045  -29.0525  -39.7144 H         1 UNK         0.2998 
    101 H101       24.9257  -28.1288  -37.2269 H         1 UNK         0.0822 
    102 H102       25.8807  -30.2394  -36.3399 H         1 UNK         0.0787 
    103 H103       26.2289  -30.7994  -37.9714 H         1 UNK         0.0787 
    104 H104       27.0691  -29.3948  -37.3153 H         1 UNK         0.0787 
    105 H105       22.8846  -28.1138  -38.9509 H         1 UNK         0.3055 
    106 H106       20.7455  -28.6679  -39.3337 H         1 UNK         0.1106 
    107 H107       20.6100  -28.1102  -36.9341 H         1 UNK         0.0828 
    108 H108       19.4470  -29.3647  -37.3308 H         1 UNK         0.0828 
    109 H109       20.9321  -29.7857  -36.4901 H         1 UNK         0.0828 
    110 H110       21.3396  -30.1345  -41.0804 H         1 UNK         0.2931 
    111 H111       21.4026  -32.9534  -40.7362 H         1 UNK         0.0412 
    112 H112       17.4194  -32.1214  -40.8580 H         1 UNK         0.3472 
    113 H113       18.5764  -30.8038  -40.8396 H         1 UNK         0.3472 
    114 H114       22.4189  -31.9527  -42.6939 H         1 UNK         0.0970 
    115 H115       21.2074  -33.0867  -43.1958 H         1 UNK         0.0970 
    116 H116       19.8596  -32.1276  -45.5724 H         1 UNK         0.0612 
    117 H117       19.0040  -32.5917  -44.1183 H         1 UNK         0.0612 
@<TRIPOS>BOND
     1    1    2 1    
     2    1   62 1    
     3    1   63 1    
     4    1   64 1    
     5    2    3 2    
     6    2    4 am   BACKBONE|DICT|INTERRES
     7    4    5 1    
     8    4   65 1    
     9    5    6 1    
    10    5   25 1    
    11    5   66 1    
    12    6    7 1    
    13    6   67 1    
    14    6   68 1    
    15    7    8 1    
    16    8    9 1    
    17    8   69 1    
    18    8   70 1    
    19    9   10 ar   
    20    9   14 ar   
    21   10   11 ar   
    22   10   71 1    
    23   11   12 ar   
    24   11   61 1    
    25   12   13 ar   
    26   12   72 1    
    27   13   14 ar   
    28   13   15 1    
    29   14   73 1    
    30   15   16 1    
    31   15   74 1    
    32   15   75 1    
    33   16   17 1    
    34   17   18 1    
    35   17   76 1    
    36   17   77 1    
    37   18   19 1    
    38   18   27 1    
    39   18   78 1    
    40   19   20 am   BACKBONE|DICT|INTERRES
    41   19   79 1    
    42   20   21 2    
    43   20   22 1    
    44   22   23 1    
    45   22   24 1    
    46   22   80 1    
    47   23   81 1    
    48   23   82 1    
    49   23   83 1    
    50   24   25 am   BACKBONE|DICT|INTERRES
    51   24   84 1    
    52   25   26 2    
    53   27   28 2    
    54   27   29 am   BACKBONE|DICT|INTERRES
    55   29   30 1    
    56   29   85 1    
    57   30   31 1    
    58   30   32 1    
    59   30   86 1    
    60   31   87 1    
    61   31   88 1    
    62   31   89 1    
    63   32   33 2    
    64   32   34 am   BACKBONE|DICT|INTERRES
    65   34   35 1    
    66   34   90 1    
    67   35   36 1    
    68   35   37 1    
    69   35   91 1    
    70   36   92 1    
    71   36   93 1    
    72   36   94 1    
    73   37   38 2    
    74   37   39 am   BACKBONE|DICT|INTERRES
    75   39   40 1    
    76   39   95 1    
    77   40   41 1    
    78   40   42 1    
    79   40   96 1    
    80   41   97 1    
    81   41   98 1    
    82   41   99 1    
    83   42   43 2    
    84   42   44 am   BACKBONE|DICT|INTERRES
    85   44   45 1    
    86   44  100 1    
    87   45   46 1    
    88   45   47 1    
    89   45  101 1    
    90   46  102 1    
    91   46  103 1    
    92   46  104 1    
    93   47   48 2    
    94   47   49 am   BACKBONE|DICT|INTERRES
    95   49   50 1    
    96   49  105 1    
    97   50   51 1    
    98   50   52 1    
    99   50  106 1    
   100   51  107 1    
   101   51  108 1    
   102   51  109 1    
   103   52   53 2    
   104   52   54 am   BACKBONE|DICT|INTERRES
   105   54   55 1    
   106   54  110 1    
   107   55   56 1    
   108   55   59 1    
   109   55  111 1    
   110   56   57 am   BACKBONE|DICT|INTERRES
   111   56   58 2    
   112   57  112 1    
   113   57  113 1    
   114   59   60 1    
   115   59  114 1    
   116   59  115 1    
   117   60   61 1    
   118   61  116 1    
   119   61  117 1    
@<TRIPOS>SUBSTRUCTURE
     1 UNK         1 GROUP             0       ****    0 ROOT    
