@<TRIPOS>MOLECULE
3R8
117   119    1
SMALL
USER_CHARGES


@<TRIPOS>ATOM
      1 CA         20.1328  -26.9261  -41.1991 C.3       0 UNK        -0.2013 
      2 C          19.4302  -26.4714  -42.4662 C.2       0 UNK         0.4866 
      3 O          19.9287  -26.7289  -43.5615 O.2       0 UNK        -0.5176 
      4 N          18.2902  -25.7835  -42.3161 N.am      1 UNK        -0.4884 
      5 CA         17.4057  -25.2973  -43.3871 C.3       1 UNK         0.0853 
      6 C6         16.6075  -26.4431  -44.0762 C.3       10 UNK        -0.0849 
      7 S7         15.6963  -27.4889  -42.8874 S.3       10 UNK        -0.2776 
      8 C8         15.7732  -29.1278  -43.6839 C.3       10 UNK         0.0316 
      9 C9         17.1979  -29.6498  -43.8212 C.ar      10 UNK        -0.0863 
     10 C10        17.9196  -30.0377  -42.6884 C.ar      10 UNK        -0.1009 
     11 C11        19.2227  -30.5296  -42.8089 C.ar      10 UNK        -0.0712 
     12 C12        19.8058  -30.6237  -44.0775 C.ar      10 UNK        -0.0894 
     13 C13        19.0950  -30.2407  -45.2192 C.ar      10 UNK        -0.0745 
     14 C14        17.7890  -29.7610  -45.0841 C.ar      10 UNK        -0.0972 
     15 C15        19.7233  -30.3791  -46.6013 C.3       10 UNK         0.0209 
     16 S16        19.9557  -28.7770  -47.4390 S.3       10 UNK        -0.2568 
     17 C17        21.2829  -28.0317  -46.4357 C.3       10 UNK        -0.0983 
     18 CA         21.4767  -26.5201  -46.7231 C.3       3 UNK         0.0876 
     19 N          20.2330  -25.7592  -46.5633 N.am      3 UNK        -0.4424 
     20 C          20.0190  -24.5248  -47.0417 C.2       2 UNK         0.4918 
     21 O          20.8528  -23.8913  -47.6896 O.2       2 UNK        -0.4875 
     22 CA         18.6425  -23.8851  -46.7717 C.3       2 UNK         0.0481 
     23 CB         17.7840  -23.9108  -48.0467 C.3       2 UNK        -0.1831 
     24 N          17.9063  -24.5419  -45.6884 N.am      2 UNK        -0.4498 
     25 C          18.1664  -24.3846  -44.3821 C.2       1 UNK         0.5027 
     26 O          18.9872  -23.5702  -43.9516 O.2       1 UNK        -0.4969 
     27 C          22.6082  -25.9550  -45.8411 C.2       3 UNK         0.5005 
     28 O          23.7744  -26.0388  -46.2291 O.2       3 UNK        -0.5279 
     29 N          22.2367  -25.4113  -44.6699 N.am      4 UNK        -0.4463 
     30 CA         23.1023  -24.9146  -43.5926 C.3       4 UNK         0.0283 
     31 CB         23.9389  -23.7035  -44.0554 C.3       4 UNK        -0.1875 
     32 C          23.9538  -26.0361  -42.9645 C.2       4 UNK         0.4949 
     33 O          25.0807  -25.7949  -42.5315 O.2       4 UNK        -0.5039 
     34 N          23.3868  -27.2491  -42.9218 N.am      5 UNK        -0.4663 
     35 CA         24.0428  -28.4798  -42.4705 C.3       5 UNK         0.0242 
     36 CB         23.4963  -29.6462  -43.3094 C.3       5 UNK        -0.1982 
     37 C          23.8820  -28.7494  -40.9622 C.2       5 UNK         0.5017 
     38 O          24.2188  -29.8455  -40.5135 O.2       5 UNK        -0.5012 
     39 N          23.3636  -27.7681  -40.2085 N.am      6 UNK        -0.4439 
     40 CA         23.0895  -27.8004  -38.7674 C.3       6 UNK         0.0297 
     41 CB         24.4101  -27.7632  -37.9647 C.3       6 UNK        -0.2006 
     42 C          22.1614  -28.9718  -38.3914 C.2       6 UNK         0.4892 
     43 O          20.9594  -28.8847  -38.6415 O.2       6 UNK        -0.5089 
     44 N          22.7345  -30.0396  -37.8256 N.am      7 UNK        -0.4243 
     45 CA         22.0535  -31.2871  -37.4838 C.3       7 UNK         0.0196 
     46 CB         21.8191  -31.3356  -35.9617 C.3       7 UNK        -0.2007 
     47 C          22.8378  -32.5074  -37.9998 C.2       7 UNK         0.5020 
     48 O          22.6951  -33.5950  -37.4407 O.2       7 UNK        -0.5147 
     49 N          23.6581  -32.3276  -39.0484 N.am      8 UNK        -0.4734 
     50 CA         24.4332  -33.4066  -39.6773 C.3       8 UNK         0.0238 
     51 CB         25.5790  -32.7970  -40.5017 C.3       8 UNK        -0.1912 
     52 C          23.5794  -34.3403  -40.5562 C.2       8 UNK         0.5038 
     53 O          24.0234  -35.4474  -40.8641 O.2       8 UNK        -0.5046 
     54 N          22.3885  -33.8761  -40.9532 N.am      9 UNK        -0.4200 
     55 CA         21.3738  -34.6339  -41.6948 C.3       9 UNK         0.0839 
     56 C          20.7797  -35.8282  -40.8949 C.2       9 UNK         0.5513 
     57 N          20.2886  -36.8477  -41.5868 N.am      9 UNK        -0.7519 
     58 O          20.7306  -35.8310  -39.6667 O.2       9 UNK        -0.4960 
     59 C59        20.2691  -33.6971  -42.2530 C.3       10 UNK        -0.0876 
     60 S60        19.4952  -32.6128  -40.9963 S.3       10 UNK        -0.2414 
     61 C61        19.9907  -30.9555  -41.5641 C.3       10 UNK         0.0169 
     62 H62        20.5924  -27.9019  -41.3541 H         1 UNK         0.0903 
     63 H63        20.9107  -26.2150  -40.9248 H         1 UNK         0.0903 
     64 H64        19.4382  -27.0163  -40.3635 H         1 UNK         0.0903 
     65 H65        17.9657  -25.5832  -41.3807 H         1 UNK         0.3096 
     66 H66        16.6802  -24.6433  -42.9007 H         1 UNK         0.1121 
     67 H67        17.2850  -27.0653  -44.6615 H         1 UNK         0.0849 
     68 H68        15.8698  -26.0408  -44.7727 H         1 UNK         0.0849 
     69 H69        15.1911  -29.8348  -43.0912 H         1 UNK         0.0865 
     70 H70        15.2832  -29.0738  -44.6574 H         1 UNK         0.0865 
     71 H71        17.4644  -29.9587  -41.7105 H         1 UNK         0.1346 
     72 H72        20.8097  -31.0085  -44.1819 H         1 UNK         0.1412 
     73 H73        17.2369  -29.4702  -45.9674 H         1 UNK         0.1426 
     74 H74        19.0780  -31.0051  -47.2190 H         1 UNK         0.0716 
     75 H75        20.6839  -30.8938  -46.5456 H         1 UNK         0.0716 
     76 H76        21.0561  -28.1976  -45.3818 H         1 UNK         0.0695 
     77 H77        22.2055  -28.5790  -46.6384 H         1 UNK         0.0695 
     78 H78        21.7980  -26.4147  -47.7618 H         1 UNK         0.0983 
     79 H79        19.5106  -26.2112  -46.0217 H         1 UNK         0.3095 
     80 H80        18.8116  -22.8415  -46.4979 H         1 UNK         0.0454 
     81 H81        16.8281  -23.4101  -47.8929 H         1 UNK         0.0851 
     82 H82        18.2876  -23.3965  -48.8665 H         1 UNK         0.0851 
     83 H83        17.5816  -24.9299  -48.3787 H         1 UNK         0.0851 
     84 H84        17.2061  -25.2138  -45.9669 H         1 UNK         0.2976 
     85 H85        21.2506  -25.4826  -44.4342 H         1 UNK         0.3116 
     86 H86        22.4311  -24.5674  -42.8058 H         1 UNK         0.0646 
     87 H87        24.4634  -23.2477  -43.2149 H         1 UNK         0.0847 
     88 H88        23.3088  -22.9330  -44.4994 H         1 UNK         0.0847 
     89 H89        24.6925  -23.9864  -44.7906 H         1 UNK         0.0847 
     90 H90        22.4473  -27.3438  -43.2844 H         1 UNK         0.3040 
     91 H91        25.1163  -28.4056  -42.6583 H         1 UNK         0.1015 
     92 H92        23.7016  -29.5001  -44.3700 H         1 UNK         0.0786 
     93 H93        22.4197  -29.7406  -43.1889 H         1 UNK         0.0786 
     94 H94        23.9483  -30.5964  -43.0223 H         1 UNK         0.0786 
     95 H95        23.1192  -26.9133  -40.6848 H         1 UNK         0.3172 
     96 H96        22.5390  -26.8877  -38.5343 H         1 UNK         0.0595 
     97 H97        24.9604  -26.8445  -38.1680 H         1 UNK         0.0839 
     98 H98        25.0713  -28.5961  -38.2053 H         1 UNK         0.0839 
     99 H99        24.2197  -27.7879  -36.8908 H         1 UNK         0.0839 
    100 H100       23.7360  -30.0274  -37.6893 H         1 UNK         0.2998 
    101 H101       21.0814  -31.3287  -37.9803 H         1 UNK         0.0822 
    102 H102       22.7603  -31.3499  -35.4108 H         1 UNK         0.0787 
    103 H103       21.2451  -30.4729  -35.6230 H         1 UNK         0.0787 
    104 H104       21.2575  -32.2262  -35.6766 H         1 UNK         0.0787 
    105 H105       23.7413  -31.4063  -39.4736 H         1 UNK         0.3055 
    106 H106       24.8726  -34.0204  -38.8876 H         1 UNK         0.1106 
    107 H107       26.2050  -32.1444  -39.8929 H         1 UNK         0.0828 
    108 H108       26.2237  -33.5767  -40.9095 H         1 UNK         0.0828 
    109 H109       25.2047  -32.2130  -41.3432 H         1 UNK         0.0828 
    110 H110       22.0964  -32.9737  -40.6114 H         1 UNK         0.2931 
    111 H111       21.8896  -35.0660  -42.5551 H         1 UNK         0.0412 
    112 H112       19.8875  -37.6283  -41.0902 H         1 UNK         0.3472 
    113 H113       20.3181  -36.8584  -42.5947 H         1 UNK         0.3472 
    114 H114       19.4816  -34.2728  -42.7428 H         1 UNK         0.0970 
    115 H115       20.7016  -33.0843  -43.0427 H         1 UNK         0.0970 
    116 H116       21.0671  -30.9366  -41.7351 H         1 UNK         0.0612 
    117 H117       19.7986  -30.2426  -40.7612 H         1 UNK         0.0612 
@<TRIPOS>BOND
     1    1    2 1    
     2    1   62 1    
     3    1   63 1    
     4    1   64 1    
     5    2    3 2    
     6    2    4 am   BACKBONE|DICT|INTERRES
     7    4    5 1    
     8    4   65 1    
     9    5    6 1    
    10    5   25 1    
    11    5   66 1    
    12    6    7 1    
    13    6   67 1    
    14    6   68 1    
    15    7    8 1    
    16    8    9 1    
    17    8   69 1    
    18    8   70 1    
    19    9   10 ar   
    20    9   14 ar   
    21   10   11 ar   
    22   10   71 1    
    23   11   12 ar   
    24   11   61 1    
    25   12   13 ar   
    26   12   72 1    
    27   13   14 ar   
    28   13   15 1    
    29   14   73 1    
    30   15   16 1    
    31   15   74 1    
    32   15   75 1    
    33   16   17 1    
    34   17   18 1    
    35   17   76 1    
    36   17   77 1    
    37   18   19 1    
    38   18   27 1    
    39   18   78 1    
    40   19   20 am   BACKBONE|DICT|INTERRES
    41   19   79 1    
    42   20   21 2    
    43   20   22 1    
    44   22   23 1    
    45   22   24 1    
    46   22   80 1    
    47   23   81 1    
    48   23   82 1    
    49   23   83 1    
    50   24   25 am   BACKBONE|DICT|INTERRES
    51   24   84 1    
    52   25   26 2    
    53   27   28 2    
    54   27   29 am   BACKBONE|DICT|INTERRES
    55   29   30 1    
    56   29   85 1    
    57   30   31 1    
    58   30   32 1    
    59   30   86 1    
    60   31   87 1    
    61   31   88 1    
    62   31   89 1    
    63   32   33 2    
    64   32   34 am   BACKBONE|DICT|INTERRES
    65   34   35 1    
    66   34   90 1    
    67   35   36 1    
    68   35   37 1    
    69   35   91 1    
    70   36   92 1    
    71   36   93 1    
    72   36   94 1    
    73   37   38 2    
    74   37   39 am   BACKBONE|DICT|INTERRES
    75   39   40 1    
    76   39   95 1    
    77   40   41 1    
    78   40   42 1    
    79   40   96 1    
    80   41   97 1    
    81   41   98 1    
    82   41   99 1    
    83   42   43 2    
    84   42   44 am   BACKBONE|DICT|INTERRES
    85   44   45 1    
    86   44  100 1    
    87   45   46 1    
    88   45   47 1    
    89   45  101 1    
    90   46  102 1    
    91   46  103 1    
    92   46  104 1    
    93   47   48 2    
    94   47   49 am   BACKBONE|DICT|INTERRES
    95   49   50 1    
    96   49  105 1    
    97   50   51 1    
    98   50   52 1    
    99   50  106 1    
   100   51  107 1    
   101   51  108 1    
   102   51  109 1    
   103   52   53 2    
   104   52   54 am   BACKBONE|DICT|INTERRES
   105   54   55 1    
   106   54  110 1    
   107   55   56 1    
   108   55   59 1    
   109   55  111 1    
   110   56   57 am   BACKBONE|DICT|INTERRES
   111   56   58 2    
   112   57  112 1    
   113   57  113 1    
   114   59   60 1    
   115   59  114 1    
   116   59  115 1    
   117   60   61 1    
   118   61  116 1    
   119   61  117 1    
@<TRIPOS>SUBSTRUCTURE
     1 UNK         1 GROUP             0       ****    0 ROOT    
