@<TRIPOS>MOLECULE
3R8
117   119    1
SMALL
USER_CHARGES


@<TRIPOS>ATOM
      1 CA         15.6768  -24.2566  -40.7662 C.3       0 UNK        -0.2013 
      2 C          16.0818  -24.2705  -42.2327 C.2       0 UNK         0.4866 
      3 O          16.1687  -23.2107  -42.8542 O.2       0 UNK        -0.5176 
      4 N          16.3220  -25.4631  -42.7922 N.am      1 UNK        -0.4884 
      5 CA         16.7998  -25.6595  -44.1648 C.3       1 UNK         0.0853 
      6 C6         16.5598  -27.1161  -44.6243 C.3       10 UNK        -0.0849 
      7 S7         16.5143  -27.2929  -46.4399 S.3       10 UNK        -0.2776 
      8 C8         16.3948  -29.1042  -46.6161 C.3       10 UNK         0.0316 
      9 C9         17.5954  -29.8038  -45.9967 C.ar      10 UNK        -0.0863 
     10 C10        17.4742  -30.4694  -44.7752 C.ar      10 UNK        -0.1009 
     11 C11        18.5841  -31.0593  -44.1640 C.ar      10 UNK        -0.0712 
     12 C12        19.8308  -30.9805  -44.8037 C.ar      10 UNK        -0.0894 
     13 C13        19.9674  -30.3201  -46.0308 C.ar      10 UNK        -0.0745 
     14 C14        18.8376  -29.7515  -46.6282 C.ar      10 UNK        -0.0972 
     15 C15        21.3280  -30.2466  -46.7200 C.3       10 UNK         0.0209 
     16 S16        21.6743  -28.6018  -47.4375 S.3       10 UNK        -0.2568 
     17 C17        22.8811  -27.8793  -46.2738 C.3       10 UNK        -0.0983 
     18 CA         22.2828  -27.1308  -45.0490 C.3       3 UNK         0.0876 
     19 N          21.1695  -26.2458  -45.4021 N.am      3 UNK        -0.4424 
     20 C          21.2313  -24.9098  -45.4122 C.2       2 UNK         0.4918 
     21 O          22.2411  -24.2670  -45.1226 O.2       2 UNK        -0.4875 
     22 CA         19.9554  -24.1421  -45.8061 C.3       2 UNK         0.0481 
     23 CB         19.9869  -23.8095  -47.3066 C.3       2 UNK        -0.1831 
     24 N          18.6748  -24.7878  -45.4873 N.am      2 UNK        -0.4498 
     25 C          18.2849  -25.2485  -44.2898 C.2       1 UNK         0.5027 
     26 O          19.0393  -25.3716  -43.3204 O.2       1 UNK        -0.4969 
     27 C          21.9452  -28.0586  -43.8665 C.2       3 UNK         0.5005 
     28 O          22.7032  -28.9980  -43.6217 O.2       3 UNK        -0.5279 
     29 N          20.8707  -27.7777  -43.1090 N.am      4 UNK        -0.4463 
     30 CA         20.4607  -28.5915  -41.9556 C.3       4 UNK         0.0283 
     31 CB         19.0908  -28.1342  -41.4335 C.3       4 UNK        -0.1875 
     32 C          21.4943  -28.6164  -40.8182 C.2       4 UNK         0.4949 
     33 O          21.7131  -29.6686  -40.2169 O.2       4 UNK        -0.5039 
     34 N          22.1337  -27.4662  -40.5681 N.am      5 UNK        -0.4663 
     35 CA         23.2188  -27.3253  -39.5945 C.3       5 UNK         0.0242 
     36 CB         23.3724  -25.8432  -39.2174 C.3       5 UNK        -0.1982 
     37 C          24.5541  -27.8906  -40.1081 C.2       5 UNK         0.5017 
     38 O          25.3492  -28.3740  -39.3031 O.2       5 UNK        -0.5012 
     39 N          24.7742  -27.8223  -41.4293 N.am      6 UNK        -0.4439 
     40 CA         25.9783  -28.3138  -42.1040 C.3       6 UNK         0.0297 
     41 CB         26.0816  -27.6936  -43.5073 C.3       6 UNK        -0.2006 
     42 C          26.0109  -29.8476  -42.1785 C.2       6 UNK         0.4892 
     43 O          27.0453  -30.4474  -41.8848 O.2       6 UNK        -0.5089 
     44 N          24.8712  -30.4511  -42.5425 N.am      7 UNK        -0.4243 
     45 CA         24.6619  -31.9004  -42.5488 C.3       7 UNK         0.0196 
     46 CB         23.4405  -32.2173  -43.4234 C.3       7 UNK        -0.2007 
     47 C          24.4719  -32.4861  -41.1379 C.2       7 UNK         0.5020 
     48 O          24.6347  -33.6948  -40.9700 O.2       7 UNK        -0.5147 
     49 N          24.1303  -31.6261  -40.1656 N.am      8 UNK        -0.4734 
     50 CA         23.8252  -31.9249  -38.7629 C.3       8 UNK         0.0238 
     51 CB         25.0691  -32.4653  -38.0254 C.3       8 UNK        -0.1912 
     52 C          22.5923  -32.8370  -38.6369 C.2       8 UNK         0.5038 
     53 O          22.6722  -33.9138  -38.0416 O.2       8 UNK        -0.5046 
     54 N          21.4775  -32.3852  -39.2257 N.am      9 UNK        -0.4200 
     55 CA         20.1876  -33.0949  -39.2476 C.3       9 UNK         0.0839 
     56 C          19.4969  -33.2434  -37.8597 C.2       9 UNK         0.5513 
     57 N          19.8636  -32.4687  -36.8454 N.am      9 UNK        -0.7519 
     58 O          18.6095  -34.0783  -37.7041 O.2       9 UNK        -0.4960 
     59 C59        19.2010  -32.4677  -40.2651 C.3       10 UNK        -0.0876 
     60 S60        19.8383  -32.4077  -41.9723 S.3       10 UNK        -0.2414 
     61 C61        18.3619  -31.7328  -42.8075 C.3       10 UNK         0.0169 
     62 H62        15.6286  -25.2611  -40.3460 H         1 UNK         0.0903 
     63 H63        16.3961  -23.6805  -40.1847 H         1 UNK         0.0903 
     64 H64        14.6970  -23.7938  -40.6515 H         1 UNK         0.0903 
     65 H65        16.2613  -26.2952  -42.2235 H         1 UNK         0.3096 
     66 H66        16.2111  -24.9955  -44.8028 H         1 UNK         0.1121 
     67 H67        17.3183  -27.7767  -44.2052 H         1 UNK         0.0849 
     68 H68        15.6013  -27.4776  -44.2476 H         1 UNK         0.0849 
     69 H69        15.4648  -29.4513  -46.1630 H         1 UNK         0.0865 
     70 H70        16.3317  -29.3571  -47.6755 H         1 UNK         0.0865 
     71 H71        16.5118  -30.5081  -44.2828 H         1 UNK         0.1346 
     72 H72        20.7049  -31.4221  -44.3510 H         1 UNK         0.1412 
     73 H73        18.9260  -29.2408  -47.5774 H         1 UNK         0.1426 
     74 H74        21.3444  -30.9844  -47.5229 H         1 UNK         0.0716 
     75 H75        22.1276  -30.5239  -46.0318 H         1 UNK         0.0716 
     76 H76        23.6045  -28.6412  -45.9781 H         1 UNK         0.0695 
     77 H77        23.4619  -27.1614  -46.8545 H         1 UNK         0.0695 
     78 H78        23.0979  -26.5254  -44.6473 H         1 UNK         0.0983 
     79 H79        20.3103  -26.6995  -45.6788 H         1 UNK         0.3095 
     80 H80        19.9725  -23.2005  -45.2539 H         1 UNK         0.0454 
     81 H81        20.9139  -23.3011  -47.5763 H         1 UNK         0.0851 
     82 H82        19.9195  -24.7091  -47.9199 H         1 UNK         0.0851 
     83 H83        19.1669  -23.1481  -47.5867 H         1 UNK         0.0851 
     84 H84        17.9914  -24.7899  -46.2317 H         1 UNK         0.2976 
     85 H85        20.3143  -26.9529  -43.3129 H         1 UNK         0.3116 
     86 H86        20.3598  -29.6162  -42.3090 H         1 UNK         0.0646 
     87 H87        18.7881  -28.7223  -40.5660 H         1 UNK         0.0847 
     88 H88        18.3189  -28.2626  -42.1898 H         1 UNK         0.0847 
     89 H89        19.0996  -27.0863  -41.1316 H         1 UNK         0.0847 
     90 H90        21.8715  -26.6448  -41.0942 H         1 UNK         0.3040 
     91 H91        22.9520  -27.8810  -38.6922 H         1 UNK         0.1015 
     92 H92        22.4528  -25.4466  -38.7864 H         1 UNK         0.0786 
     93 H93        23.6319  -25.2287  -40.0805 H         1 UNK         0.0786 
     94 H94        24.1599  -25.7100  -38.4741 H         1 UNK         0.0786 
     95 H95        24.0409  -27.4499  -42.0127 H         1 UNK         0.3172 
     96 H96        26.8473  -27.9875  -41.5283 H         1 UNK         0.0595 
     97 H97        27.0010  -28.0090  -44.0024 H         1 UNK         0.0839 
     98 H98        26.0977  -26.6046  -43.4616 H         1 UNK         0.0839 
     99 H99        25.2522  -27.9924  -44.1481 H         1 UNK         0.0839 
    100 H100       24.0755  -29.8796  -42.8256 H         1 UNK         0.2998 
    101 H101       25.5382  -32.3786  -42.9917 H         1 UNK         0.0822 
    102 H102       23.5808  -31.8659  -44.4455 H         1 UNK         0.0787 
    103 H103       23.2521  -33.2907  -43.4677 H         1 UNK         0.0787 
    104 H104       22.5445  -31.7425  -43.0244 H         1 UNK         0.0787 
    105 H105       23.9785  -30.6656  -40.4418 H         1 UNK         0.3055 
    106 H106       23.5555  -30.9756  -38.2965 H         1 UNK         0.1106 
    107 H107       25.3848  -33.4352  -38.4108 H         1 UNK         0.0828 
    108 H108       25.9106  -31.7783  -38.1155 H         1 UNK         0.0828 
    109 H109       24.8653  -32.5912  -36.9615 H         1 UNK         0.0828 
    110 H110       21.5043  -31.4812  -39.6911 H         1 UNK         0.2931 
    111 H111       20.3994  -34.1108  -39.5868 H         1 UNK         0.0412 
    112 H112       20.5864  -31.7776  -36.9654 H         1 UNK         0.3472 
    113 H113       19.4103  -32.5765  -35.9514 H         1 UNK         0.3472 
    114 H114       18.2646  -33.0295  -40.2808 H         1 UNK         0.0970 
    115 H115       18.9445  -31.4518  -39.9577 H         1 UNK         0.0970 
    116 H116       17.6391  -32.5410  -42.9276 H         1 UNK         0.0612 
    117 H117       17.8992  -30.9990  -42.1459 H         1 UNK         0.0612 
@<TRIPOS>BOND
     1    1    2 1    
     2    1   62 1    
     3    1   63 1    
     4    1   64 1    
     5    2    3 2    
     6    2    4 am   BACKBONE|DICT|INTERRES
     7    4    5 1    
     8    4   65 1    
     9    5    6 1    
    10    5   25 1    
    11    5   66 1    
    12    6    7 1    
    13    6   67 1    
    14    6   68 1    
    15    7    8 1    
    16    8    9 1    
    17    8   69 1    
    18    8   70 1    
    19    9   10 ar   
    20    9   14 ar   
    21   10   11 ar   
    22   10   71 1    
    23   11   12 ar   
    24   11   61 1    
    25   12   13 ar   
    26   12   72 1    
    27   13   14 ar   
    28   13   15 1    
    29   14   73 1    
    30   15   16 1    
    31   15   74 1    
    32   15   75 1    
    33   16   17 1    
    34   17   18 1    
    35   17   76 1    
    36   17   77 1    
    37   18   19 1    
    38   18   27 1    
    39   18   78 1    
    40   19   20 am   BACKBONE|DICT|INTERRES
    41   19   79 1    
    42   20   21 2    
    43   20   22 1    
    44   22   23 1    
    45   22   24 1    
    46   22   80 1    
    47   23   81 1    
    48   23   82 1    
    49   23   83 1    
    50   24   25 am   BACKBONE|DICT|INTERRES
    51   24   84 1    
    52   25   26 2    
    53   27   28 2    
    54   27   29 am   BACKBONE|DICT|INTERRES
    55   29   30 1    
    56   29   85 1    
    57   30   31 1    
    58   30   32 1    
    59   30   86 1    
    60   31   87 1    
    61   31   88 1    
    62   31   89 1    
    63   32   33 2    
    64   32   34 am   BACKBONE|DICT|INTERRES
    65   34   35 1    
    66   34   90 1    
    67   35   36 1    
    68   35   37 1    
    69   35   91 1    
    70   36   92 1    
    71   36   93 1    
    72   36   94 1    
    73   37   38 2    
    74   37   39 am   BACKBONE|DICT|INTERRES
    75   39   40 1    
    76   39   95 1    
    77   40   41 1    
    78   40   42 1    
    79   40   96 1    
    80   41   97 1    
    81   41   98 1    
    82   41   99 1    
    83   42   43 2    
    84   42   44 am   BACKBONE|DICT|INTERRES
    85   44   45 1    
    86   44  100 1    
    87   45   46 1    
    88   45   47 1    
    89   45  101 1    
    90   46  102 1    
    91   46  103 1    
    92   46  104 1    
    93   47   48 2    
    94   47   49 am   BACKBONE|DICT|INTERRES
    95   49   50 1    
    96   49  105 1    
    97   50   51 1    
    98   50   52 1    
    99   50  106 1    
   100   51  107 1    
   101   51  108 1    
   102   51  109 1    
   103   52   53 2    
   104   52   54 am   BACKBONE|DICT|INTERRES
   105   54   55 1    
   106   54  110 1    
   107   55   56 1    
   108   55   59 1    
   109   55  111 1    
   110   56   57 am   BACKBONE|DICT|INTERRES
   111   56   58 2    
   112   57  112 1    
   113   57  113 1    
   114   59   60 1    
   115   59  114 1    
   116   59  115 1    
   117   60   61 1    
   118   61  116 1    
   119   61  117 1    
@<TRIPOS>SUBSTRUCTURE
     1 UNK         1 GROUP             0       ****    0 ROOT    
