@<TRIPOS>MOLECULE
3R8
117   119    1
SMALL
USER_CHARGES


@<TRIPOS>ATOM
      1 CA         22.3859  -29.5735  -45.4071 C.3       0 UNK        -0.2013 
      2 C          21.0436  -28.9054  -45.1645 C.2       0 UNK         0.4866 
      3 O          20.7876  -28.4195  -44.0631 O.2       0 UNK        -0.5176 
      4 N          20.1871  -28.8429  -46.1936 N.am      1 UNK        -0.4884 
      5 CA         18.8096  -28.3246  -46.1157 C.3       1 UNK         0.0853 
      6 C6         17.8658  -28.9397  -47.1809 C.3       10 UNK        -0.0849 
      7 S7         17.8220  -30.7651  -47.1106 S.3       10 UNK        -0.2776 
      8 C8         16.4832  -31.0723  -45.9049 C.3       10 UNK         0.0316 
      9 C9         16.8471  -30.5977  -44.5026 C.ar      10 UNK        -0.0863 
     10 C10        17.9476  -31.1503  -43.8397 C.ar      10 UNK        -0.1009 
     11 C11        18.3216  -30.6898  -42.5745 C.ar      10 UNK        -0.0712 
     12 C12        17.5672  -29.6895  -41.9574 C.ar      10 UNK        -0.0894 
     13 C13        16.4822  -29.1097  -42.6165 C.ar      10 UNK        -0.0745 
     14 C14        16.1170  -29.5757  -43.8847 C.ar      10 UNK        -0.0972 
     15 C15        15.7260  -27.9592  -41.9704 C.3       10 UNK         0.0209 
     16 S16        16.4101  -26.3501  -42.4845 S.3       10 UNK        -0.2568 
     17 C17        17.7335  -26.0272  -41.2604 C.3       10 UNK        -0.0983 
     18 CA         19.1584  -26.4564  -41.7113 C.3       3 UNK         0.0876 
     19 N          19.5346  -26.0603  -43.0726 N.am      3 UNK        -0.4424 
     20 C          19.5184  -24.8478  -43.6488 C.2       2 UNK         0.4918 
     21 O          19.2746  -23.8073  -43.0380 O.2       2 UNK        -0.4875 
     22 CA         19.8629  -24.7795  -45.1544 C.3       2 UNK         0.0481 
     23 CB         21.2562  -24.1643  -45.3580 C.3       2 UNK        -0.1831 
     24 N          19.8234  -26.1015  -45.7873 N.am      2 UNK        -0.4498 
     25 C          18.6963  -26.7853  -46.0320 C.2       1 UNK         0.5027 
     26 O          17.5890  -26.2515  -46.1073 O.2       1 UNK        -0.4969 
     27 C          20.2327  -26.0803  -40.6737 C.2       3 UNK         0.5005 
     28 O          20.5825  -26.9089  -39.8323 O.2       3 UNK        -0.5279 
     29 N          20.7799  -24.8630  -40.7858 N.am      4 UNK        -0.4463 
     30 CA         21.9042  -24.3528  -39.9963 C.3       4 UNK         0.0283 
     31 CB         21.9456  -22.8216  -40.1279 C.3       4 UNK        -0.1875 
     32 C          23.2645  -24.9621  -40.3905 C.2       4 UNK         0.4949 
     33 O          24.2420  -24.7621  -39.6683 O.2       4 UNK        -0.5039 
     34 N          23.3206  -25.6886  -41.5165 N.am      5 UNK        -0.4663 
     35 CA         24.5073  -26.3480  -42.0712 C.3       5 UNK         0.0242 
     36 CB         24.2490  -26.6561  -43.5578 C.3       5 UNK        -0.1982 
     37 C          24.9221  -27.6018  -41.2741 C.2       5 UNK         0.5017 
     38 O          24.9169  -28.7093  -41.8148 O.2       5 UNK        -0.5012 
     39 N          25.2435  -27.4030  -39.9872 N.am      6 UNK        -0.4439 
     40 CA         25.7640  -28.3769  -39.0144 C.3       6 UNK         0.0297 
     41 CB         27.2050  -28.7769  -39.3961 C.3       6 UNK        -0.2006 
     42 C          24.8713  -29.6157  -38.7815 C.2       6 UNK         0.4892 
     43 O          25.3649  -30.6262  -38.2782 O.2       6 UNK        -0.5089 
     44 N          23.5881  -29.5237  -39.1647 N.am      7 UNK        -0.4243 
     45 CA         22.5987  -30.6058  -39.2238 C.3       7 UNK         0.0196 
     46 CB         22.2038  -31.0727  -37.8069 C.3       7 UNK        -0.2007 
     47 C          23.0248  -31.7714  -40.1441 C.2       7 UNK         0.5020 
     48 O          22.6654  -32.9212  -39.8846 O.2       7 UNK        -0.5147 
     49 N          23.7745  -31.4696  -41.2154 N.am      8 UNK        -0.4734 
     50 CA         24.2757  -32.4391  -42.1963 C.3       8 UNK         0.0238 
     51 CB         25.5357  -31.8571  -42.8644 C.3       8 UNK        -0.1912 
     52 C          23.1917  -32.8345  -43.2193 C.2       8 UNK         0.5038 
     53 O          23.3729  -32.6306  -44.4210 O.2       8 UNK        -0.5046 
     54 N          22.0655  -33.3513  -42.7162 N.am      9 UNK        -0.4200 
     55 CA         20.8695  -33.7129  -43.4880 C.3       9 UNK         0.0839 
     56 C          21.1189  -34.8775  -44.4844 C.2       9 UNK         0.5513 
     57 N          20.4784  -34.8504  -45.6453 N.am      9 UNK        -0.7519 
     58 O          21.8470  -35.8249  -44.1946 O.2       9 UNK        -0.4960 
     59 C59        19.6623  -34.0361  -42.5620 C.3       10 UNK        -0.0876 
     60 S60        19.3434  -32.8724  -41.1819 S.3       10 UNK        -0.2414 
     61 C61        19.5762  -31.2131  -41.8951 C.3       10 UNK         0.0169 
     62 H62        22.8224  -29.8988  -44.4628 H         1 UNK         0.0903 
     63 H63        22.2811  -30.4494  -46.0471 H         1 UNK         0.0903 
     64 H64        23.0788  -28.8771  -45.8779 H         1 UNK         0.0903 
     65 H65        20.4488  -29.2451  -47.0833 H         1 UNK         0.3096 
     66 H66        18.4304  -28.6362  -45.1436 H         1 UNK         0.1121 
     67 H67        16.8455  -28.5695  -47.0629 H         1 UNK         0.0849 
     68 H68        18.1819  -28.6408  -48.1817 H         1 UNK         0.0849 
     69 H69        16.2782  -32.1432  -45.8716 H         1 UNK         0.0865 
     70 H70        15.5654  -30.5974  -46.2553 H         1 UNK         0.0865 
     71 H71        18.5310  -31.9148  -44.3303 H         1 UNK         0.1346 
     72 H72        17.8495  -29.3306  -40.9772 H         1 UNK         0.1412 
     73 H73        15.2809  -29.1217  -44.3992 H         1 UNK         0.1426 
     74 H74        15.7363  -28.0470  -40.8830 H         1 UNK         0.0716 
     75 H75        14.6768  -28.0017  -42.2664 H         1 UNK         0.0716 
     76 H76        17.4740  -26.5156  -40.3196 H         1 UNK         0.0695 
     77 H77        17.7160  -24.9562  -41.0507 H         1 UNK         0.0695 
     78 H78        19.1711  -27.5443  -41.7485 H         1 UNK         0.0983 
     79 H79        19.8573  -26.8451  -43.6334 H         1 UNK         0.3095 
     80 H80        19.1265  -24.1335  -45.6366 H         1 UNK         0.0454 
     81 H81        21.4981  -24.0711  -46.4168 H         1 UNK         0.0851 
     82 H82        22.0352  -24.7625  -44.8862 H         1 UNK         0.0851 
     83 H83        21.3080  -23.1636  -44.9266 H         1 UNK         0.0851 
     84 H84        20.6829  -26.6323  -45.7748 H         1 UNK         0.2976 
     85 H85        20.4018  -24.2521  -41.5050 H         1 UNK         0.3116 
     86 H86        21.7286  -24.6027  -38.9479 H         1 UNK         0.0646 
     87 H87        22.7493  -22.3976  -39.5242 H         1 UNK         0.0847 
     88 H88        21.0147  -22.3681  -39.7870 H         1 UNK         0.0847 
     89 H89        22.1135  -22.5092  -41.1595 H         1 UNK         0.0847 
     90 H90        22.4587  -25.8241  -42.0228 H         1 UNK         0.3040 
     91 H91        25.3464  -25.6505  -42.0190 H         1 UNK         0.1015 
     92 H92        24.0846  -25.7427  -44.1284 H         1 UNK         0.0786 
     93 H93        23.3796  -27.3007  -43.6888 H         1 UNK         0.0786 
     94 H94        25.1029  -27.1637  -44.0089 H         1 UNK         0.0786 
     95 H95        25.1258  -26.4523  -39.6419 H         1 UNK         0.3172 
     96 H96        25.8062  -27.8540  -38.0580 H         1 UNK         0.0595 
     97 H97        27.2296  -29.3572  -40.3193 H         1 UNK         0.0839 
     98 H98        27.6663  -29.3855  -38.6173 H         1 UNK         0.0839 
     99 H99        27.8381  -27.9003  -39.5336 H         1 UNK         0.0839 
    100 H100       23.2915  -28.6427  -39.5611 H         1 UNK         0.2998 
    101 H101       21.7108  -30.1703  -39.6823 H         1 UNK         0.0822 
    102 H102       23.0274  -31.5794  -37.3030 H         1 UNK         0.0787 
    103 H103       21.8936  -30.2334  -37.1847 H         1 UNK         0.0787 
    104 H104       21.3675  -31.7720  -37.8457 H         1 UNK         0.0787 
    105 H105       24.0406  -30.5011  -41.3703 H         1 UNK         0.3055 
    106 H106       24.5704  -33.3516  -41.6728 H         1 UNK         0.1106 
    107 H107       25.9743  -32.5708  -43.5630 H         1 UNK         0.0828 
    108 H108       25.3119  -30.9474  -43.4233 H         1 UNK         0.0828 
    109 H109       26.3001  -31.6143  -42.1260 H         1 UNK         0.0828 
    110 H110       22.0046  -33.4645  -41.7098 H         1 UNK         0.2931 
    111 H111       20.6167  -32.8373  -44.0871 H         1 UNK         0.0412 
    112 H112       19.8733  -34.0833  -45.8934 H         1 UNK         0.3472 
    113 H113       20.6156  -35.6080  -46.2965 H         1 UNK         0.3472 
    114 H114       18.7485  -34.1092  -43.1543 H         1 UNK         0.0970 
    115 H115       19.7963  -35.0210  -42.1099 H         1 UNK         0.0970 
    116 H116       19.8517  -30.5437  -41.0800 H         1 UNK         0.0612 
    117 H117       20.4171  -31.1765  -42.5854 H         1 UNK         0.0612 
@<TRIPOS>BOND
     1    1    2 1    
     2    1   62 1    
     3    1   63 1    
     4    1   64 1    
     5    2    3 2    
     6    2    4 am   BACKBONE|DICT|INTERRES
     7    4    5 1    
     8    4   65 1    
     9    5    6 1    
    10    5   25 1    
    11    5   66 1    
    12    6    7 1    
    13    6   67 1    
    14    6   68 1    
    15    7    8 1    
    16    8    9 1    
    17    8   69 1    
    18    8   70 1    
    19    9   10 ar   
    20    9   14 ar   
    21   10   11 ar   
    22   10   71 1    
    23   11   12 ar   
    24   11   61 1    
    25   12   13 ar   
    26   12   72 1    
    27   13   14 ar   
    28   13   15 1    
    29   14   73 1    
    30   15   16 1    
    31   15   74 1    
    32   15   75 1    
    33   16   17 1    
    34   17   18 1    
    35   17   76 1    
    36   17   77 1    
    37   18   19 1    
    38   18   27 1    
    39   18   78 1    
    40   19   20 am   BACKBONE|DICT|INTERRES
    41   19   79 1    
    42   20   21 2    
    43   20   22 1    
    44   22   23 1    
    45   22   24 1    
    46   22   80 1    
    47   23   81 1    
    48   23   82 1    
    49   23   83 1    
    50   24   25 am   BACKBONE|DICT|INTERRES
    51   24   84 1    
    52   25   26 2    
    53   27   28 2    
    54   27   29 am   BACKBONE|DICT|INTERRES
    55   29   30 1    
    56   29   85 1    
    57   30   31 1    
    58   30   32 1    
    59   30   86 1    
    60   31   87 1    
    61   31   88 1    
    62   31   89 1    
    63   32   33 2    
    64   32   34 am   BACKBONE|DICT|INTERRES
    65   34   35 1    
    66   34   90 1    
    67   35   36 1    
    68   35   37 1    
    69   35   91 1    
    70   36   92 1    
    71   36   93 1    
    72   36   94 1    
    73   37   38 2    
    74   37   39 am   BACKBONE|DICT|INTERRES
    75   39   40 1    
    76   39   95 1    
    77   40   41 1    
    78   40   42 1    
    79   40   96 1    
    80   41   97 1    
    81   41   98 1    
    82   41   99 1    
    83   42   43 2    
    84   42   44 am   BACKBONE|DICT|INTERRES
    85   44   45 1    
    86   44  100 1    
    87   45   46 1    
    88   45   47 1    
    89   45  101 1    
    90   46  102 1    
    91   46  103 1    
    92   46  104 1    
    93   47   48 2    
    94   47   49 am   BACKBONE|DICT|INTERRES
    95   49   50 1    
    96   49  105 1    
    97   50   51 1    
    98   50   52 1    
    99   50  106 1    
   100   51  107 1    
   101   51  108 1    
   102   51  109 1    
   103   52   53 2    
   104   52   54 am   BACKBONE|DICT|INTERRES
   105   54   55 1    
   106   54  110 1    
   107   55   56 1    
   108   55   59 1    
   109   55  111 1    
   110   56   57 am   BACKBONE|DICT|INTERRES
   111   56   58 2    
   112   57  112 1    
   113   57  113 1    
   114   59   60 1    
   115   59  114 1    
   116   59  115 1    
   117   60   61 1    
   118   61  116 1    
   119   61  117 1    
@<TRIPOS>SUBSTRUCTURE
     1 UNK         1 GROUP             0       ****    0 ROOT    
