@<TRIPOS>MOLECULE
3R8
117   119    1
SMALL
USER_CHARGES


@<TRIPOS>ATOM
      1 CA         18.4508  -24.1648  -39.0803 C.3       0 UNK        -0.2013 
      2 C          18.2608  -24.4251  -40.5670 C.2       0 UNK         0.4866 
      3 O          17.8902  -23.5136  -41.3076 O.2       0 UNK        -0.5176 
      4 N          18.5018  -25.6639  -41.0076 N.am      1 UNK        -0.4884 
      5 CA         18.4143  -26.0885  -42.4059 C.3       1 UNK         0.0853 
      6 C6         18.3320  -27.6253  -42.5178 C.3       10 UNK        -0.0849 
      7 S7         16.8507  -28.3656  -41.7469 S.3       10 UNK        -0.2776 
      8 C8         16.0633  -29.2691  -43.1261 C.3       10 UNK         0.0316 
      9 C9         17.0492  -30.1199  -43.9195 C.ar      10 UNK        -0.0863 
     10 C10        17.6694  -31.2286  -43.3387 C.ar      10 UNK        -0.1009 
     11 C11        18.6030  -31.9796  -44.0611 C.ar      10 UNK        -0.0712 
     12 C12        18.9184  -31.6059  -45.3733 C.ar      10 UNK        -0.0894 
     13 C13        18.3135  -30.4914  -45.9669 C.ar      10 UNK        -0.0745 
     14 C14        17.3591  -29.7730  -45.2366 C.ar      10 UNK        -0.0972 
     15 C15        18.6899  -30.0975  -47.3975 C.3       10 UNK         0.0209 
     16 S16        18.5435  -28.3033  -47.7352 S.3       10 UNK        -0.2568 
     17 C17        20.1785  -27.8675  -48.4255 C.3       10 UNK        -0.0983 
     18 CA         21.1998  -27.3404  -47.3805 C.3       3 UNK         0.0876 
     19 N          20.6112  -26.3045  -46.5181 N.am      3 UNK        -0.4424 
     20 C          21.2858  -25.2908  -45.9613 C.2       2 UNK         0.4918 
     21 O          22.4984  -25.1240  -46.0891 O.2       2 UNK        -0.4875 
     22 CA         20.4679  -24.2808  -45.1358 C.3       2 UNK         0.0481 
     23 CB         19.8464  -23.2187  -46.0571 C.3       2 UNK        -0.1831 
     24 N          19.4145  -24.8940  -44.3177 N.am      2 UNK        -0.4498 
     25 C          19.6436  -25.5743  -43.1851 C.2       1 UNK         0.5027 
     26 O          20.7726  -25.8231  -42.7574 O.2       1 UNK        -0.4969 
     27 C          21.8429  -28.5013  -46.5913 C.2       3 UNK         0.5005 
     28 O          22.5168  -29.3393  -47.1943 O.2       3 UNK        -0.5279 
     29 N          21.6015  -28.5566  -45.2777 N.am      4 UNK        -0.4463 
     30 CA         22.0524  -29.6203  -44.3865 C.3       4 UNK         0.0283 
     31 CB         21.2237  -29.5378  -43.1009 C.3       4 UNK        -0.1875 
     32 C          23.5418  -29.5231  -44.0320 C.2       4 UNK         0.4949 
     33 O          24.1380  -28.4479  -44.1256 O.2       4 UNK        -0.5039 
     34 N          24.0872  -30.6417  -43.5367 N.am      5 UNK        -0.4663 
     35 CA         25.3210  -30.6544  -42.7494 C.3       5 UNK         0.0242 
     36 CB         25.8877  -32.0815  -42.6937 C.3       5 UNK        -0.1982 
     37 C          25.0186  -30.1187  -41.3394 C.2       5 UNK         0.5017 
     38 O          23.9307  -30.3818  -40.8122 O.2       5 UNK        -0.5012 
     39 N          25.9630  -29.3560  -40.7694 N.am      6 UNK        -0.4439 
     40 CA         25.7917  -28.5262  -39.5694 C.3       6 UNK         0.0297 
     41 CB         25.6133  -29.3932  -38.3005 C.3       6 UNK        -0.2006 
     42 C          24.6613  -27.5068  -39.8104 C.2       6 UNK         0.4892 
     43 O          24.8863  -26.5297  -40.5259 O.2       6 UNK        -0.5089 
     44 N          23.4675  -27.7866  -39.2766 N.am      7 UNK        -0.4243 
     45 CA         22.2206  -27.1095  -39.6291 C.3       7 UNK         0.0196 
     46 CB         22.0508  -25.8381  -38.7731 C.3       7 UNK        -0.2007 
     47 C          21.0141  -28.0602  -39.5197 C.2       7 UNK         0.5020 
     48 O          19.8919  -27.5743  -39.3686 O.2       7 UNK        -0.5147 
     49 N          21.2395  -29.3849  -39.5673 N.am      8 UNK        -0.4734 
     50 CA         20.1893  -30.3899  -39.3285 C.3       8 UNK         0.0238 
     51 CB         19.8367  -30.4292  -37.8246 C.3       8 UNK        -0.1912 
     52 C          20.5094  -31.8115  -39.8319 C.2       8 UNK         0.5038 
     53 O          19.6379  -32.6751  -39.7177 O.2       8 UNK        -0.5046 
     54 N          21.7194  -32.0529  -40.3561 N.am      9 UNK        -0.4200 
     55 CA         22.2517  -33.3702  -40.7492 C.3       9 UNK         0.0839 
     56 C          22.5790  -34.2838  -39.5287 C.2       9 UNK         0.5513 
     57 N          22.9820  -35.5268  -39.7608 N.am      9 UNK        -0.7519 
     58 O          22.5143  -33.8754  -38.3704 O.2       9 UNK        -0.4960 
     59 C59        21.4292  -34.0991  -41.8572 C.3       10 UNK        -0.0876 
     60 S60        21.0667  -33.0478  -43.3061 S.3       10 UNK        -0.2414 
     61 C61        19.2531  -33.1987  -43.4187 C.3       10 UNK         0.0169 
     62 H62        18.6863  -25.0796  -38.5358 H         1 UNK         0.0903 
     63 H63        19.2627  -23.4552  -38.9234 H         1 UNK         0.0903 
     64 H64        17.5412  -23.7434  -38.6534 H         1 UNK         0.0903 
     65 H65        18.8564  -26.3687  -40.3627 H         1 UNK         0.3096 
     66 H66        17.5096  -25.6604  -42.8434 H         1 UNK         0.1121 
     67 H67        19.1874  -28.0739  -42.0161 H         1 UNK         0.0849 
     68 H68        18.3996  -27.9188  -43.5644 H         1 UNK         0.0849 
     69 H69        15.5647  -28.5476  -43.7753 H         1 UNK         0.0865 
     70 H70        15.2765  -29.9100  -42.7262 H         1 UNK         0.0865 
     71 H71        17.4302  -31.4974  -42.3185 H         1 UNK         0.1346 
     72 H72        19.6458  -32.1828  -45.9282 H         1 UNK         0.1412 
     73 H73        16.8662  -28.9209  -45.6824 H         1 UNK         0.1426 
     74 H74        18.0414  -30.6356  -48.0897 H         1 UNK         0.0716 
     75 H75        19.7077  -30.4269  -47.6109 H         1 UNK         0.0716 
     76 H76        20.0047  -27.0838  -49.1645 H         1 UNK         0.0695 
     77 H77        20.5796  -28.7074  -48.9963 H         1 UNK         0.0695 
     78 H78        22.0195  -26.8852  -47.9413 H         1 UNK         0.0983 
     79 H79        19.6124  -26.3675  -46.3819 H         1 UNK         0.3095 
     80 H80        21.1613  -23.7695  -44.4643 H         1 UNK         0.0454 
     81 H81        19.3444  -22.4399  -45.4828 H         1 UNK         0.0851 
     82 H82        19.1189  -23.6511  -46.7451 H         1 UNK         0.0851 
     83 H83        20.6125  -22.7290  -46.6601 H         1 UNK         0.0851 
     84 H84        18.4609  -24.7237  -44.6052 H         1 UNK         0.2976 
     85 H85        21.1012  -27.7901  -44.8547 H         1 UNK         0.3116 
     86 H86        21.8678  -30.5814  -44.8707 H         1 UNK         0.0646 
     87 H87        20.1675  -29.6992  -43.3070 H         1 UNK         0.0847 
     88 H88        21.3475  -28.5727  -42.6095 H         1 UNK         0.0847 
     89 H89        21.5267  -30.2996  -42.3870 H         1 UNK         0.0847 
     90 H90        23.5035  -31.4632  -43.4619 H         1 UNK         0.3040 
     91 H91        26.0556  -30.0053  -43.2317 H         1 UNK         0.1015 
     92 H92        26.1035  -32.4597  -43.6930 H         1 UNK         0.0786 
     93 H93        25.2016  -32.7785  -42.2149 H         1 UNK         0.0786 
     94 H94        26.8213  -32.1072  -42.1302 H         1 UNK         0.0786 
     95 H95        26.8158  -29.1909  -41.2866 H         1 UNK         0.3172 
     96 H96        26.7106  -27.9504  -39.4482 H         1 UNK         0.0595 
     97 H97        24.7541  -30.0615  -38.3550 H         1 UNK         0.0839 
     98 H98        25.4896  -28.7680  -37.4151 H         1 UNK         0.0839 
     99 H99        26.4934  -30.0134  -38.1304 H         1 UNK         0.0839 
    100 H100       23.3836  -28.6008  -38.6848 H         1 UNK         0.2998 
    101 H101       22.2684  -26.8119  -40.6793 H         1 UNK         0.0822 
    102 H102       22.9120  -25.1765  -38.8655 H         1 UNK         0.0787 
    103 H103       21.1781  -25.2677  -39.0908 H         1 UNK         0.0787 
    104 H104       21.9230  -26.0795  -37.7172 H         1 UNK         0.0787 
    105 H105       22.1708  -29.7190  -39.7832 H         1 UNK         0.3055 
    106 H106       19.2981  -30.0818  -39.8816 H         1 UNK         0.1106 
    107 H107       20.7036  -30.6961  -37.2192 H         1 UNK         0.0828 
    108 H108       19.4624  -29.4691  -37.4701 H         1 UNK         0.0828 
    109 H109       19.0568  -31.1636  -37.6181 H         1 UNK         0.0828 
    110 H110       22.4071  -31.3103  -40.4231 H         1 UNK         0.2931 
    111 H111       23.2232  -33.1371  -41.1806 H         1 UNK         0.0412 
    112 H112       23.0764  -35.8850  -40.6980 H         1 UNK         0.3472 
    113 H113       23.2100  -36.1181  -38.9763 H         1 UNK         0.3472 
    114 H114       20.5058  -34.5010  -41.4383 H         1 UNK         0.0970 
    115 H115       21.9792  -34.9636  -42.2308 H         1 UNK         0.0970 
    116 H116       19.0045  -34.0898  -43.9963 H         1 UNK         0.0612 
    117 H117       18.8380  -33.3512  -42.4215 H         1 UNK         0.0612 
@<TRIPOS>BOND
     1    1    2 1    
     2    1   62 1    
     3    1   63 1    
     4    1   64 1    
     5    2    3 2    
     6    2    4 am   BACKBONE|DICT|INTERRES
     7    4    5 1    
     8    4   65 1    
     9    5    6 1    
    10    5   25 1    
    11    5   66 1    
    12    6    7 1    
    13    6   67 1    
    14    6   68 1    
    15    7    8 1    
    16    8    9 1    
    17    8   69 1    
    18    8   70 1    
    19    9   10 ar   
    20    9   14 ar   
    21   10   11 ar   
    22   10   71 1    
    23   11   12 ar   
    24   11   61 1    
    25   12   13 ar   
    26   12   72 1    
    27   13   14 ar   
    28   13   15 1    
    29   14   73 1    
    30   15   16 1    
    31   15   74 1    
    32   15   75 1    
    33   16   17 1    
    34   17   18 1    
    35   17   76 1    
    36   17   77 1    
    37   18   19 1    
    38   18   27 1    
    39   18   78 1    
    40   19   20 am   BACKBONE|DICT|INTERRES
    41   19   79 1    
    42   20   21 2    
    43   20   22 1    
    44   22   23 1    
    45   22   24 1    
    46   22   80 1    
    47   23   81 1    
    48   23   82 1    
    49   23   83 1    
    50   24   25 am   BACKBONE|DICT|INTERRES
    51   24   84 1    
    52   25   26 2    
    53   27   28 2    
    54   27   29 am   BACKBONE|DICT|INTERRES
    55   29   30 1    
    56   29   85 1    
    57   30   31 1    
    58   30   32 1    
    59   30   86 1    
    60   31   87 1    
    61   31   88 1    
    62   31   89 1    
    63   32   33 2    
    64   32   34 am   BACKBONE|DICT|INTERRES
    65   34   35 1    
    66   34   90 1    
    67   35   36 1    
    68   35   37 1    
    69   35   91 1    
    70   36   92 1    
    71   36   93 1    
    72   36   94 1    
    73   37   38 2    
    74   37   39 am   BACKBONE|DICT|INTERRES
    75   39   40 1    
    76   39   95 1    
    77   40   41 1    
    78   40   42 1    
    79   40   96 1    
    80   41   97 1    
    81   41   98 1    
    82   41   99 1    
    83   42   43 2    
    84   42   44 am   BACKBONE|DICT|INTERRES
    85   44   45 1    
    86   44  100 1    
    87   45   46 1    
    88   45   47 1    
    89   45  101 1    
    90   46  102 1    
    91   46  103 1    
    92   46  104 1    
    93   47   48 2    
    94   47   49 am   BACKBONE|DICT|INTERRES
    95   49   50 1    
    96   49  105 1    
    97   50   51 1    
    98   50   52 1    
    99   50  106 1    
   100   51  107 1    
   101   51  108 1    
   102   51  109 1    
   103   52   53 2    
   104   52   54 am   BACKBONE|DICT|INTERRES
   105   54   55 1    
   106   54  110 1    
   107   55   56 1    
   108   55   59 1    
   109   55  111 1    
   110   56   57 am   BACKBONE|DICT|INTERRES
   111   56   58 2    
   112   57  112 1    
   113   57  113 1    
   114   59   60 1    
   115   59  114 1    
   116   59  115 1    
   117   60   61 1    
   118   61  116 1    
   119   61  117 1    
@<TRIPOS>SUBSTRUCTURE
     1 UNK         1 GROUP             0       ****    0 ROOT    
