@<TRIPOS>MOLECULE
3R8
117   119    1
SMALL
USER_CHARGES


@<TRIPOS>ATOM
      1 CA         17.0730  -21.7025  -45.8834 C.3       0 UNK        -0.2013 
      2 C          17.7605  -22.9574  -46.3999 C.2       0 UNK         0.4866 
      3 O          18.7713  -22.8590  -47.0955 O.2       0 UNK        -0.5176 
      4 N          17.2246  -24.1380  -46.0599 N.am      1 UNK        -0.4884 
      5 CA         17.7484  -25.4488  -46.4769 C.3       1 UNK         0.0853 
      6 C6         16.6128  -26.5068  -46.5431 C.3       10 UNK        -0.0849 
      7 S7         16.8383  -27.6639  -47.9375 S.3       10 UNK        -0.2776 
      8 C8         16.0795  -29.1946  -47.3002 C.3       10 UNK         0.0316 
      9 C9         16.7934  -29.7465  -46.0724 C.ar      10 UNK        -0.0863 
     10 C10        18.1593  -30.0448  -46.1199 C.ar      10 UNK        -0.1009 
     11 C11        18.8139  -30.5434  -44.9915 C.ar      10 UNK        -0.0712 
     12 C12        18.0865  -30.7788  -43.8235 C.ar      10 UNK        -0.0894 
     13 C13        16.7255  -30.4714  -43.7534 C.ar      10 UNK        -0.0745 
     14 C14        16.0839  -29.9594  -44.8854 C.ar      10 UNK        -0.0972 
     15 C15        15.9415  -30.6801  -42.4604 C.3       10 UNK         0.0209 
     16 S16        16.8114  -30.0898  -40.9646 S.3       10 UNK        -0.2568 
     17 C17        17.2051  -28.3602  -41.3970 C.3       10 UNK        -0.0983 
     18 CA         18.7353  -28.1350  -41.5174 C.3       3 UNK         0.0876 
     19 N          19.0496  -27.0008  -42.3907 N.am      3 UNK        -0.4424 
     20 C          20.2843  -26.6393  -42.7674 C.2       2 UNK         0.4918 
     21 O          21.3033  -27.2420  -42.4247 O.2       2 UNK        -0.4875 
     22 CA         20.4037  -25.3688  -43.6310 C.3       2 UNK         0.0481 
     23 CB         21.7583  -25.2743  -44.3688 C.3       2 UNK        -0.1831 
     24 N          19.2777  -25.1732  -44.5545 N.am      2 UNK        -0.4498 
     25 C          18.9542  -25.9202  -45.6242 C.2       1 UNK         0.5027 
     26 O          19.5731  -26.9300  -45.9588 O.2       1 UNK        -0.4969 
     27 C          19.3990  -27.9629  -40.1350 C.2       3 UNK         0.5005 
     28 O          19.0845  -26.9994  -39.4331 O.2       3 UNK        -0.5279 
     29 N          20.3393  -28.8612  -39.8069 N.am      4 UNK        -0.4463 
     30 CA         21.1887  -28.8946  -38.6079 C.3       4 UNK         0.0283 
     31 CB         20.3486  -28.9510  -37.3151 C.3       4 UNK        -0.1875 
     32 C          22.2690  -27.7945  -38.5463 C.2       4 UNK         0.4949 
     33 O          23.0945  -27.8276  -37.6328 O.2       4 UNK        -0.5039 
     34 N          22.2818  -26.8651  -39.5116 N.am      5 UNK        -0.4663 
     35 CA         23.3725  -25.9127  -39.7302 C.3       5 UNK         0.0242 
     36 CB         22.8225  -24.6280  -40.3692 C.3       5 UNK        -0.1982 
     37 C          24.4659  -26.5480  -40.6034 C.2       5 UNK         0.5017 
     38 O          25.6509  -26.3312  -40.3470 O.2       5 UNK        -0.5012 
     39 N          24.0463  -27.3522  -41.5906 N.am      6 UNK        -0.4439 
     40 CA         24.8918  -28.2737  -42.3454 C.3       6 UNK         0.0297 
     41 CB         24.0976  -28.7806  -43.5605 C.3       6 UNK        -0.2006 
     42 C          25.3378  -29.4557  -41.4663 C.2       6 UNK         0.4892 
     43 O          24.6448  -29.8105  -40.5091 O.2       6 UNK        -0.5089 
     44 N          26.4796  -30.0591  -41.8204 N.am      7 UNK        -0.4243 
     45 CA         27.0283  -31.2398  -41.1509 C.3       7 UNK         0.0196 
     46 CB         28.4513  -31.5077  -41.6678 C.3       7 UNK        -0.2007 
     47 C          26.1269  -32.4650  -41.3710 C.2       7 UNK         0.5020 
     48 O          25.8459  -32.8055  -42.5222 O.2       7 UNK        -0.5147 
     49 N          25.6799  -33.0833  -40.2692 N.am      8 UNK        -0.4734 
     50 CA         24.8036  -34.2630  -40.1533 C.3       8 UNK         0.0238 
     51 CB         25.4596  -35.5072  -40.7841 C.3       8 UNK        -0.1912 
     52 C          23.3631  -34.0817  -40.6750 C.2       8 UNK         0.5038 
     53 O          22.4367  -34.6033  -40.0538 O.2       8 UNK        -0.5046 
     54 N          23.1993  -33.3755  -41.7975 N.am      9 UNK        -0.4200 
     55 CA         21.9283  -33.0717  -42.4591 C.3       9 UNK         0.0839 
     56 C          21.0512  -32.1104  -41.6084 C.2       9 UNK         0.5513 
     57 N          19.9709  -32.6049  -41.0196 N.am      9 UNK        -0.7519 
     58 O          21.3208  -30.9163  -41.5082 O.2       9 UNK        -0.4960 
     59 C59        22.1944  -32.5477  -43.8946 C.3       10 UNK        -0.0876 
     60 S60        20.7025  -32.5599  -44.9437 S.3       10 UNK        -0.2414 
     61 C61        20.3132  -30.7836  -45.0040 C.3       10 UNK         0.0169 
     62 H62        16.7528  -21.0803  -46.7187 H         1 UNK         0.0903 
     63 H63        16.1961  -21.9354  -45.2794 H         1 UNK         0.0903 
     64 H64        17.7621  -21.1216  -45.2710 H         1 UNK         0.0903 
     65 H65        16.3918  -24.1572  -45.4870 H         1 UNK         0.3096 
     66 H66        18.1439  -25.3191  -47.4874 H         1 UNK         0.1121 
     67 H67        16.5166  -27.0469  -45.5995 H         1 UNK         0.0849 
     68 H68        15.6472  -26.0245  -46.7037 H         1 UNK         0.0849 
     69 H69        15.0264  -29.0027  -47.0883 H         1 UNK         0.0865 
     70 H70        16.0997  -29.9506  -48.0863 H         1 UNK         0.0865 
     71 H71        18.7169  -29.8592  -47.0278 H         1 UNK         0.1346 
     72 H72        18.5914  -31.1767  -42.9556 H         1 UNK         0.1412 
     73 H73        15.0291  -29.7237  -44.8413 H         1 UNK         0.1426 
     74 H74        15.7302  -31.7440  -42.3465 H         1 UNK         0.0716 
     75 H75        14.9749  -30.1767  -42.5133 H         1 UNK         0.0716 
     76 H76        16.7551  -27.6951  -40.6573 H         1 UNK         0.0695 
     77 H77        16.7124  -28.1175  -42.3396 H         1 UNK         0.0695 
     78 H78        19.1783  -29.0073  -42.0014 H         1 UNK         0.0983 
     79 H79        18.2722  -26.4302  -42.6852 H         1 UNK         0.3095 
     80 H80        20.3598  -24.5328  -42.9319 H         1 UNK         0.0454 
     81 H81        21.9164  -26.1210  -45.0371 H         1 UNK         0.0851 
     82 H82        22.5930  -25.2642  -43.6677 H         1 UNK         0.0851 
     83 H83        21.8249  -24.3620  -44.9612 H         1 UNK         0.0851 
     84 H84        18.7043  -24.3596  -44.3802 H         1 UNK         0.2976 
     85 H85        20.5853  -29.5711  -40.4979 H         1 UNK         0.3116 
     86 H86        21.7371  -29.8355  -38.6790 H         1 UNK         0.0646 
     87 H87        19.8241  -28.0140  -37.1273 H         1 UNK         0.0847 
     88 H88        20.9822  -29.1422  -36.4483 H         1 UNK         0.0847 
     89 H89        19.6083  -29.7498  -37.3563 H         1 UNK         0.0847 
     90 H90        21.5762  -26.9263  -40.2336 H         1 UNK         0.3040 
     91 H91        23.8226  -25.6471  -38.7708 H         1 UNK         0.1015 
     92 H92        22.3584  -24.8196  -41.3350 H         1 UNK         0.0786 
     93 H93        23.6202  -23.9013  -40.5291 H         1 UNK         0.0786 
     94 H94        22.0775  -24.1562  -39.7282 H         1 UNK         0.0786 
     95 H95        23.0457  -27.4488  -41.7412 H         1 UNK         0.3172 
     96 H96        25.7749  -27.7341  -42.6937 H         1 UNK         0.0595 
     97 H97        24.6838  -29.4836  -44.1537 H         1 UNK         0.0839 
     98 H98        23.8112  -27.9593  -44.2177 H         1 UNK         0.0839 
     99 H99        23.1841  -29.2916  -43.2526 H         1 UNK         0.0839 
    100 H100       26.9720  -29.7332  -42.6395 H         1 UNK         0.2998 
    101 H101       27.0885  -31.0241  -40.0818 H         1 UNK         0.0822 
    102 H102       28.8886  -32.3752  -41.1716 H         1 UNK         0.0787 
    103 H103       28.4615  -31.7071  -42.7403 H         1 UNK         0.0787 
    104 H104       29.1100  -30.6601  -41.4770 H         1 UNK         0.0787 
    105 H105       25.9419  -32.6750  -39.3816 H         1 UNK         0.3055 
    106 H106       24.7121  -34.4538  -39.0824 H         1 UNK         0.1106 
    107 H107       24.8525  -36.3969  -40.6107 H         1 UNK         0.0828 
    108 H108       25.5794  -35.4045  -41.8630 H         1 UNK         0.0828 
    109 H109       26.4428  -35.6986  -40.3542 H         1 UNK         0.0828 
    110 H110       24.0414  -33.0044  -42.2291 H         1 UNK         0.2931 
    111 H111       21.3987  -34.0221  -42.5552 H         1 UNK         0.0412 
    112 H112       19.7605  -33.5890  -41.0817 H         1 UNK         0.3472 
    113 H113       19.3818  -32.0032  -40.4674 H         1 UNK         0.3472 
    114 H114       22.9252  -33.1905  -44.3883 H         1 UNK         0.0970 
    115 H115       22.6489  -31.5563  -43.8747 H         1 UNK         0.0970 
    116 H116       20.7468  -30.2645  -44.1479 H         1 UNK         0.0612 
    117 H117       20.7739  -30.3463  -45.8910 H         1 UNK         0.0612 
@<TRIPOS>BOND
     1    1    2 1    
     2    1   62 1    
     3    1   63 1    
     4    1   64 1    
     5    2    3 2    
     6    2    4 am   BACKBONE|DICT|INTERRES
     7    4    5 1    
     8    4   65 1    
     9    5    6 1    
    10    5   25 1    
    11    5   66 1    
    12    6    7 1    
    13    6   67 1    
    14    6   68 1    
    15    7    8 1    
    16    8    9 1    
    17    8   69 1    
    18    8   70 1    
    19    9   10 ar   
    20    9   14 ar   
    21   10   11 ar   
    22   10   71 1    
    23   11   12 ar   
    24   11   61 1    
    25   12   13 ar   
    26   12   72 1    
    27   13   14 ar   
    28   13   15 1    
    29   14   73 1    
    30   15   16 1    
    31   15   74 1    
    32   15   75 1    
    33   16   17 1    
    34   17   18 1    
    35   17   76 1    
    36   17   77 1    
    37   18   19 1    
    38   18   27 1    
    39   18   78 1    
    40   19   20 am   BACKBONE|DICT|INTERRES
    41   19   79 1    
    42   20   21 2    
    43   20   22 1    
    44   22   23 1    
    45   22   24 1    
    46   22   80 1    
    47   23   81 1    
    48   23   82 1    
    49   23   83 1    
    50   24   25 am   BACKBONE|DICT|INTERRES
    51   24   84 1    
    52   25   26 2    
    53   27   28 2    
    54   27   29 am   BACKBONE|DICT|INTERRES
    55   29   30 1    
    56   29   85 1    
    57   30   31 1    
    58   30   32 1    
    59   30   86 1    
    60   31   87 1    
    61   31   88 1    
    62   31   89 1    
    63   32   33 2    
    64   32   34 am   BACKBONE|DICT|INTERRES
    65   34   35 1    
    66   34   90 1    
    67   35   36 1    
    68   35   37 1    
    69   35   91 1    
    70   36   92 1    
    71   36   93 1    
    72   36   94 1    
    73   37   38 2    
    74   37   39 am   BACKBONE|DICT|INTERRES
    75   39   40 1    
    76   39   95 1    
    77   40   41 1    
    78   40   42 1    
    79   40   96 1    
    80   41   97 1    
    81   41   98 1    
    82   41   99 1    
    83   42   43 2    
    84   42   44 am   BACKBONE|DICT|INTERRES
    85   44   45 1    
    86   44  100 1    
    87   45   46 1    
    88   45   47 1    
    89   45  101 1    
    90   46  102 1    
    91   46  103 1    
    92   46  104 1    
    93   47   48 2    
    94   47   49 am   BACKBONE|DICT|INTERRES
    95   49   50 1    
    96   49  105 1    
    97   50   51 1    
    98   50   52 1    
    99   50  106 1    
   100   51  107 1    
   101   51  108 1    
   102   51  109 1    
   103   52   53 2    
   104   52   54 am   BACKBONE|DICT|INTERRES
   105   54   55 1    
   106   54  110 1    
   107   55   56 1    
   108   55   59 1    
   109   55  111 1    
   110   56   57 am   BACKBONE|DICT|INTERRES
   111   56   58 2    
   112   57  112 1    
   113   57  113 1    
   114   59   60 1    
   115   59  114 1    
   116   59  115 1    
   117   60   61 1    
   118   61  116 1    
   119   61  117 1    
@<TRIPOS>SUBSTRUCTURE
     1 UNK         1 GROUP             0       ****    0 ROOT    
