@<TRIPOS>MOLECULE
3R8
117   119    1
SMALL
USER_CHARGES


@<TRIPOS>ATOM
      1 CA         12.6321  -24.3952  -45.0147 C.3       0 UNK        -0.2013 
      2 C          14.0730  -24.5291  -45.4847 C.2       0 UNK         0.4866 
      3 O          14.6093  -23.5990  -46.0881 O.2       0 UNK        -0.5176 
      4 N          14.7023  -25.6812  -45.2203 N.am      1 UNK        -0.4884 
      5 CA         16.1081  -25.9553  -45.5346 C.3       1 UNK         0.0853 
      6 C6         16.3997  -27.4786  -45.4968 C.3       10 UNK        -0.0849 
      7 S7         17.7106  -27.9916  -46.6594 S.3       10 UNK        -0.2776 
      8 C8         19.2133  -27.9973  -45.6288 C.3       10 UNK         0.0316 
      9 C9         19.1951  -29.0693  -44.5494 C.ar      10 UNK        -0.0863 
     10 C10        19.5887  -30.3763  -44.8495 C.ar      10 UNK        -0.1009 
     11 C11        19.6309  -31.3504  -43.8477 C.ar      10 UNK        -0.0712 
     12 C12        19.2724  -31.0114  -42.5392 C.ar      10 UNK        -0.0894 
     13 C13        18.8719  -29.7080  -42.2276 C.ar      10 UNK        -0.0745 
     14 C14        18.8296  -28.7449  -43.2397 C.ar      10 UNK        -0.0972 
     15 C15        18.4700  -29.3482  -40.8034 C.3       10 UNK         0.0209 
     16 S16        19.7386  -28.3461  -39.9598 S.3       10 UNK        -0.2568 
     17 C17        19.2829  -26.6434  -40.4376 C.3       10 UNK        -0.0983 
     18 CA         20.2885  -26.0163  -41.4416 C.3       3 UNK         0.0876 
     19 N          19.6129  -25.0655  -42.3302 N.am      3 UNK        -0.4424 
     20 C          20.0085  -24.7281  -43.5625 C.2       2 UNK         0.4918 
     21 O          21.0352  -25.1604  -44.0901 O.2       2 UNK        -0.4875 
     22 CA         19.0796  -23.7853  -44.3468 C.3       2 UNK         0.0481 
     23 CB         19.8681  -22.8856  -45.3148 C.3       2 UNK        -0.1831 
     24 N          18.0796  -24.5431  -45.1033 N.am      2 UNK        -0.4498 
     25 C          17.0247  -25.1742  -44.5688 C.2       1 UNK         0.5027 
     26 O          16.7651  -25.1689  -43.3622 O.2       1 UNK        -0.4969 
     27 C          21.5443  -25.3966  -40.7808 C.2       3 UNK         0.5005 
     28 O          21.6219  -25.2934  -39.5549 O.2       3 UNK        -0.5279 
     29 N          22.4939  -24.9628  -41.6191 N.am      4 UNK        -0.4463 
     30 CA         23.8008  -24.4336  -41.2367 C.3       4 UNK         0.0283 
     31 CB         24.1818  -23.2925  -42.2023 C.3       4 UNK        -0.1875 
     32 C          24.8065  -25.5960  -41.2131 C.2       4 UNK         0.4949 
     33 O          24.7888  -26.3920  -40.2730 O.2       4 UNK        -0.5039 
     34 N          25.6369  -25.7155  -42.2580 N.am      5 UNK        -0.4663 
     35 CA         26.5617  -26.8314  -42.4834 C.3       5 UNK         0.0242 
     36 CB         27.6834  -26.3646  -43.4304 C.3       5 UNK        -0.1982 
     37 C          25.8094  -28.0687  -43.0146 C.2       5 UNK         0.5017 
     38 O          26.0258  -28.4886  -44.1529 O.2       5 UNK        -0.5012 
     39 N          24.9035  -28.5948  -42.1864 N.am      6 UNK        -0.4439 
     40 CA         24.0047  -29.7049  -42.4787 C.3       6 UNK         0.0297 
     41 CB         22.7322  -29.1652  -43.1650 C.3       6 UNK        -0.2006 
     42 C          23.7546  -30.4711  -41.1702 C.2       6 UNK         0.4892 
     43 O          24.7237  -30.8071  -40.4863 O.2       6 UNK        -0.5089 
     44 N          22.4818  -30.7370  -40.8418 N.am      7 UNK        -0.4243 
     45 CA         21.9549  -31.3963  -39.6359 C.3       7 UNK         0.0196 
     46 CB         22.3575  -30.6449  -38.3514 C.3       7 UNK        -0.2007 
     47 C          22.2848  -32.8942  -39.5249 C.2       7 UNK         0.5020 
     48 O          21.3792  -33.6898  -39.2763 O.2       7 UNK        -0.5147 
     49 N          23.5540  -33.2663  -39.7367 N.am      8 UNK        -0.4734 
     50 CA         24.0619  -34.6456  -39.6990 C.3       8 UNK         0.0238 
     51 CB         25.5929  -34.6213  -39.8322 C.3       8 UNK        -0.1912 
     52 C          23.4414  -35.5670  -40.7663 C.2       8 UNK         0.5038 
     53 O          23.3903  -36.7813  -40.5682 O.2       8 UNK        -0.5046 
     54 N          22.9645  -34.9631  -41.8593 N.am      9 UNK        -0.4200 
     55 CA         22.1363  -35.5762  -42.9042 C.3       9 UNK         0.0839 
     56 C          20.6920  -35.9556  -42.4598 C.2       9 UNK         0.5513 
     57 N          20.2047  -35.5286  -41.3001 N.am      9 UNK        -0.7519 
     58 O          19.9992  -36.6625  -43.1869 O.2       9 UNK        -0.4960 
     59 C59        22.1367  -34.7125  -44.1968 C.3       10 UNK        -0.0876 
     60 S60        21.8753  -32.9274  -43.8958 S.3       10 UNK        -0.2414 
     61 C61        20.0877  -32.7626  -44.1722 C.3       10 UNK         0.0169 
     62 H62        11.9761  -24.2080  -45.8644 H         1 UNK         0.0903 
     63 H63        12.2824  -25.2948  -44.5085 H         1 UNK         0.0903 
     64 H64        12.5400  -23.5590  -44.3222 H         1 UNK         0.0903 
     65 H65        14.2240  -26.3945  -44.6882 H         1 UNK         0.3096 
     66 H66        16.2821  -25.5922  -46.5506 H         1 UNK         0.1121 
     67 H67        15.5104  -28.0274  -45.8116 H         1 UNK         0.0849 
     68 H68        16.6006  -27.8343  -44.4862 H         1 UNK         0.0849 
     69 H69        20.0775  -28.1543  -46.2762 H         1 UNK         0.0865 
     70 H70        19.3577  -27.0152  -45.1849 H         1 UNK         0.0865 
     71 H71        19.8798  -30.6311  -45.8595 H         1 UNK         0.1346 
     72 H72        19.3084  -31.7661  -41.7652 H         1 UNK         0.1412 
     73 H73        18.5177  -27.7371  -43.0061 H         1 UNK         0.1426 
     74 H74        18.3145  -30.2565  -40.2193 H         1 UNK         0.0716 
     75 H75        17.5101  -28.8301  -40.8044 H         1 UNK         0.0716 
     76 H76        18.2833  -26.6708  -40.8735 H         1 UNK         0.0695 
     77 H77        19.1747  -26.0359  -39.5374 H         1 UNK         0.0695 
     78 H78        20.6552  -26.8231  -42.0780 H         1 UNK         0.0983 
     79 H79        18.7417  -24.6812  -41.9902 H         1 UNK         0.3095 
     80 H80        18.5648  -23.1363  -43.6350 H         1 UNK         0.0454 
     81 H81        20.3763  -23.4638  -46.0877 H         1 UNK         0.0851 
     82 H82        20.6304  -22.3150  -44.7826 H         1 UNK         0.0851 
     83 H83        19.2146  -22.1670  -45.8097 H         1 UNK         0.0851 
     84 H84        18.2340  -24.6131  -46.0992 H         1 UNK         0.2976 
     85 H85        22.3164  -25.0729  -42.6138 H         1 UNK         0.3116 
     86 H86        23.7586  -24.0186  -40.2275 H         1 UNK         0.0646 
     87 H87        24.1603  -23.6044  -43.2473 H         1 UNK         0.0847 
     88 H88        25.1801  -22.9090  -41.9859 H         1 UNK         0.0847 
     89 H89        23.4921  -22.4544  -42.1007 H         1 UNK         0.0847 
     90 H90        25.5667  -25.0374  -43.0030 H         1 UNK         0.3040 
     91 H91        27.0231  -27.1120  -41.5335 H         1 UNK         0.1015 
     92 H92        27.2934  -26.0573  -44.4016 H         1 UNK         0.0786 
     93 H93        28.4035  -27.1650  -43.6062 H         1 UNK         0.0786 
     94 H94        28.2338  -25.5235  -43.0084 H         1 UNK         0.0786 
     95 H95        24.8096  -28.1771  -41.2646 H         1 UNK         0.3172 
     96 H96        24.4990  -30.4017  -43.1587 H         1 UNK         0.0595 
     97 H97        22.9759  -28.5982  -44.0636 H         1 UNK         0.0839 
     98 H98        22.1630  -28.5095  -42.5072 H         1 UNK         0.0839 
     99 H99        22.0788  -29.9770  -43.4786 H         1 UNK         0.0839 
    100 H100       21.7728  -30.4377  -41.4973 H         1 UNK         0.2998 
    101 H101       20.8694  -31.3255  -39.7206 H         1 UNK         0.0822 
    102 H102       21.8549  -31.0691  -37.4813 H         1 UNK         0.0787 
    103 H103       23.4299  -30.6982  -38.1622 H         1 UNK         0.0787 
    104 H104       22.0803  -29.5921  -38.4038 H         1 UNK         0.0787 
    105 H105       24.2206  -32.5249  -39.9429 H         1 UNK         0.3055 
    106 H106       23.8050  -35.0668  -38.7245 H         1 UNK         0.1106 
    107 H107       26.0060  -35.6300  -39.7860 H         1 UNK         0.0828 
    108 H108       25.9083  -34.1819  -40.7795 H         1 UNK         0.0828 
    109 H109       26.0523  -34.0477  -39.0270 H         1 UNK         0.0828 
    110 H110       23.0510  -33.9592  -41.9187 H         1 UNK         0.2931 
    111 H111       22.6119  -36.5252  -43.1593 H         1 UNK         0.0412 
    112 H112       20.7506  -34.9416  -40.6784 H         1 UNK         0.3472 
    113 H113       19.2700  -35.7957  -41.0359 H         1 UNK         0.3472 
    114 H114       23.1082  -34.8115  -44.6831 H         1 UNK         0.0970 
    115 H115       21.4149  -35.0802  -44.9290 H         1 UNK         0.0970 
    116 H116       19.8544  -33.0108  -45.2087 H         1 UNK         0.0612 
    117 H117       19.5484  -33.4776  -43.5500 H         1 UNK         0.0612 
@<TRIPOS>BOND
     1    1    2 1    
     2    1   62 1    
     3    1   63 1    
     4    1   64 1    
     5    2    3 2    
     6    2    4 am   BACKBONE|DICT|INTERRES
     7    4    5 1    
     8    4   65 1    
     9    5    6 1    
    10    5   25 1    
    11    5   66 1    
    12    6    7 1    
    13    6   67 1    
    14    6   68 1    
    15    7    8 1    
    16    8    9 1    
    17    8   69 1    
    18    8   70 1    
    19    9   10 ar   
    20    9   14 ar   
    21   10   11 ar   
    22   10   71 1    
    23   11   12 ar   
    24   11   61 1    
    25   12   13 ar   
    26   12   72 1    
    27   13   14 ar   
    28   13   15 1    
    29   14   73 1    
    30   15   16 1    
    31   15   74 1    
    32   15   75 1    
    33   16   17 1    
    34   17   18 1    
    35   17   76 1    
    36   17   77 1    
    37   18   19 1    
    38   18   27 1    
    39   18   78 1    
    40   19   20 am   BACKBONE|DICT|INTERRES
    41   19   79 1    
    42   20   21 2    
    43   20   22 1    
    44   22   23 1    
    45   22   24 1    
    46   22   80 1    
    47   23   81 1    
    48   23   82 1    
    49   23   83 1    
    50   24   25 am   BACKBONE|DICT|INTERRES
    51   24   84 1    
    52   25   26 2    
    53   27   28 2    
    54   27   29 am   BACKBONE|DICT|INTERRES
    55   29   30 1    
    56   29   85 1    
    57   30   31 1    
    58   30   32 1    
    59   30   86 1    
    60   31   87 1    
    61   31   88 1    
    62   31   89 1    
    63   32   33 2    
    64   32   34 am   BACKBONE|DICT|INTERRES
    65   34   35 1    
    66   34   90 1    
    67   35   36 1    
    68   35   37 1    
    69   35   91 1    
    70   36   92 1    
    71   36   93 1    
    72   36   94 1    
    73   37   38 2    
    74   37   39 am   BACKBONE|DICT|INTERRES
    75   39   40 1    
    76   39   95 1    
    77   40   41 1    
    78   40   42 1    
    79   40   96 1    
    80   41   97 1    
    81   41   98 1    
    82   41   99 1    
    83   42   43 2    
    84   42   44 am   BACKBONE|DICT|INTERRES
    85   44   45 1    
    86   44  100 1    
    87   45   46 1    
    88   45   47 1    
    89   45  101 1    
    90   46  102 1    
    91   46  103 1    
    92   46  104 1    
    93   47   48 2    
    94   47   49 am   BACKBONE|DICT|INTERRES
    95   49   50 1    
    96   49  105 1    
    97   50   51 1    
    98   50   52 1    
    99   50  106 1    
   100   51  107 1    
   101   51  108 1    
   102   51  109 1    
   103   52   53 2    
   104   52   54 am   BACKBONE|DICT|INTERRES
   105   54   55 1    
   106   54  110 1    
   107   55   56 1    
   108   55   59 1    
   109   55  111 1    
   110   56   57 am   BACKBONE|DICT|INTERRES
   111   56   58 2    
   112   57  112 1    
   113   57  113 1    
   114   59   60 1    
   115   59  114 1    
   116   59  115 1    
   117   60   61 1    
   118   61  116 1    
   119   61  117 1    
@<TRIPOS>SUBSTRUCTURE
     1 UNK         1 GROUP             0       ****    0 ROOT    
