@<TRIPOS>MOLECULE
3R8
117   119    1
SMALL
USER_CHARGES


@<TRIPOS>ATOM
      1 CA         18.7661  -23.3008  -49.2256 C.3       0 UNK        -0.2013 
      2 C          19.3290  -23.5540  -47.8353 C.2       0 UNK         0.4866 
      3 O          19.7483  -22.6115  -47.1636 O.2       0 UNK        -0.5176 
      4 N          19.3451  -24.8208  -47.4008 N.am      1 UNK        -0.4884 
      5 CA         19.8106  -25.2548  -46.0773 C.3       1 UNK         0.0853 
      6 C6         20.0329  -26.7906  -46.0131 C.3       10 UNK        -0.0849 
      7 S7         18.5928  -27.7619  -46.5863 S.3       10 UNK        -0.2776 
      8 C8         19.1474  -29.4683  -46.2808 C.3       10 UNK         0.0316 
      9 C9         18.9836  -29.8686  -44.8218 C.ar      10 UNK        -0.0863 
     10 C10        20.1022  -30.1244  -44.0234 C.ar      10 UNK        -0.1009 
     11 C11        19.9460  -30.5302  -42.6940 C.ar      10 UNK        -0.0712 
     12 C12        18.6608  -30.6535  -42.1563 C.ar      10 UNK        -0.0894 
     13 C13        17.5346  -30.3851  -42.9410 C.ar      10 UNK        -0.0745 
     14 C14        17.7039  -30.0109  -44.2774 C.ar      10 UNK        -0.0972 
     15 C15        16.1361  -30.4808  -42.3453 C.3       10 UNK         0.0209 
     16 S16        15.2817  -28.8684  -42.3382 S.3       10 UNK        -0.2568 
     17 C17        16.2571  -27.9166  -41.1215 C.3       10 UNK        -0.0983 
     18 CA         17.4724  -27.1777  -41.7487 C.3       3 UNK         0.0876 
     19 N          17.1390  -26.3522  -42.9154 N.am      3 UNK        -0.4424 
     20 C          16.4601  -25.1970  -42.9321 C.2       2 UNK         0.4918 
     21 O          15.8769  -24.7311  -41.9524 O.2       2 UNK        -0.4875 
     22 CA         16.4782  -24.4069  -44.2622 C.3       2 UNK         0.0481 
     23 CB         16.4929  -22.8832  -44.0216 C.3       2 UNK        -0.1831 
     24 N          17.5677  -24.7800  -45.1823 N.am      2 UNK        -0.4498 
     25 C          18.8901  -24.7766  -44.9364 C.2       1 UNK         0.5027 
     26 O          19.3865  -24.4574  -43.8559 O.2       1 UNK        -0.4969 
     27 C          18.3420  -26.4368  -40.7026 C.2       3 UNK         0.5005 
     28 O          18.3491  -26.8180  -39.5307 O.2       3 UNK        -0.5279 
     29 N          19.0902  -25.4164  -41.1451 N.am      4 UNK        -0.4463 
     30 CA         20.0537  -24.6475  -40.3617 C.3       4 UNK         0.0283 
     31 CB         19.6950  -23.1530  -40.4602 C.3       4 UNK        -0.1875 
     32 C          21.4587  -24.9608  -40.8978 C.2       4 UNK         0.4949 
     33 O          22.1784  -24.0626  -41.3374 O.2       4 UNK        -0.5039 
     34 N          21.8037  -26.2514  -40.8834 N.am      5 UNK        -0.4663 
     35 CA         23.0561  -26.8099  -41.3825 C.3       5 UNK         0.0242 
     36 CB         22.8285  -27.3469  -42.8077 C.3       5 UNK        -0.1982 
     37 C          23.5370  -27.9096  -40.4255 C.2       5 UNK         0.5017 
     38 O          22.7642  -28.3678  -39.5787 O.2       5 UNK        -0.5012 
     39 N          24.8111  -28.2957  -40.5694 N.am      6 UNK        -0.4439 
     40 CA         25.4864  -29.3076  -39.7524 C.3       6 UNK         0.0297 
     41 CB         26.9834  -29.3132  -40.1062 C.3       6 UNK        -0.2006 
     42 C          24.8968  -30.7170  -39.9305 C.2       6 UNK         0.4892 
     43 O          24.3822  -31.0381  -41.0028 O.2       6 UNK        -0.5089 
     44 N          25.0562  -31.5498  -38.8914 N.am      7 UNK        -0.4243 
     45 CA         24.5556  -32.9289  -38.7837 C.3       7 UNK         0.0196 
     46 CB         24.8467  -33.4510  -37.3666 C.3       7 UNK        -0.2007 
     47 C          25.0785  -33.9224  -39.8419 C.2       7 UNK         0.5020 
     48 O          24.5551  -35.0339  -39.9319 O.2       7 UNK        -0.5147 
     49 N          26.0613  -33.5069  -40.6535 N.am      8 UNK        -0.4734 
     50 CA         26.5639  -34.2133  -41.8372 C.3       8 UNK         0.0238 
     51 CB         27.7389  -33.4169  -42.4285 C.3       8 UNK        -0.1912 
     52 C          25.4953  -34.4828  -42.9182 C.2       8 UNK         0.5038 
     53 O          25.7192  -35.3422  -43.7719 O.2       8 UNK        -0.5046 
     54 N          24.3558  -33.7779  -42.8532 N.am      9 UNK        -0.4200 
     55 CA         23.1336  -34.0778  -43.6133 C.3       9 UNK         0.0839 
     56 C          22.4867  -35.4638  -43.3077 C.2       9 UNK         0.5513 
     57 N          22.7951  -36.1153  -42.1909 N.am      9 UNK        -0.7519 
     58 O          21.6976  -35.9587  -44.1084 O.2       9 UNK        -0.4960 
     59 C59        22.0975  -32.9289  -43.5006 C.3       10 UNK        -0.0876 
     60 S60        21.5013  -32.6322  -41.7955 S.3       10 UNK        -0.2414 
     61 C61        21.1629  -30.8453  -41.8370 C.3       10 UNK         0.0169 
     62 H62        19.5233  -22.8387  -49.8585 H         1 UNK         0.0903 
     63 H63        18.4379  -24.2218  -49.7073 H         1 UNK         0.0903 
     64 H64        17.9125  -22.6260  -49.1673 H         1 UNK         0.0903 
     65 H65        18.9923  -25.5599  -47.9941 H         1 UNK         0.3096 
     66 H66        20.7781  -24.7777  -45.9027 H         1 UNK         0.1121 
     67 H67        20.8856  -27.0556  -46.6402 H         1 UNK         0.0849 
     68 H68        20.3030  -27.1050  -45.0024 H         1 UNK         0.0849 
     69 H69        18.5554  -30.1446  -46.8990 H         1 UNK         0.0865 
     70 H70        20.1812  -29.5840  -46.6103 H         1 UNK         0.0865 
     71 H71        21.0948  -30.0249  -44.4406 H         1 UNK         0.1346 
     72 H72        18.5412  -30.9572  -41.1252 H         1 UNK         0.1412 
     73 H73        16.8356  -29.8084  -44.8902 H         1 UNK         0.1426 
     74 H74        16.1660  -30.8781  -41.3295 H         1 UNK         0.0716 
     75 H75        15.5491  -31.1871  -42.9339 H         1 UNK         0.0716 
     76 H76        16.5834  -28.5994  -40.3350 H         1 UNK         0.0695 
     77 H77        15.5889  -27.1996  -40.6418 H         1 UNK         0.0695 
     78 H78        18.1492  -27.9344  -42.1393 H         1 UNK         0.0983 
     79 H79        17.5445  -26.6594  -43.7875 H         1 UNK         0.3095 
     80 H80        15.5480  -24.6553  -44.7749 H         1 UNK         0.0454 
     81 H81        15.6133  -22.5634  -43.4616 H         1 UNK         0.0851 
     82 H82        16.4923  -22.3325  -44.9622 H         1 UNK         0.0851 
     83 H83        17.3705  -22.5736  -43.4530 H         1 UNK         0.0851 
     84 H84        17.2762  -25.0924  -46.0986 H         1 UNK         0.2976 
     85 H85        19.0650  -25.1801  -42.1351 H         1 UNK         0.3116 
     86 H86        20.0280  -24.9385  -39.3097 H         1 UNK         0.0646 
     87 H87        18.6941  -22.9610  -40.0733 H         1 UNK         0.0847 
     88 H88        19.7277  -22.7973  -41.4910 H         1 UNK         0.0847 
     89 H89        20.3902  -22.5446  -39.8804 H         1 UNK         0.0847 
     90 H90        21.1956  -26.9184  -40.4247 H         1 UNK         0.3040 
     91 H91        23.8261  -26.0351  -41.4058 H         1 UNK         0.1015 
     92 H92        23.7143  -27.8529  -43.1935 H         1 UNK         0.0786 
     93 H93        22.5934  -26.5359  -43.4975 H         1 UNK         0.0786 
     94 H94        22.0022  -28.0561  -42.8420 H         1 UNK         0.0786 
     95 H95        25.3560  -27.8893  -41.3158 H         1 UNK         0.3172 
     96 H96        25.3748  -29.0164  -38.7058 H         1 UNK         0.0595 
     97 H97        27.1510  -29.5917  -41.1478 H         1 UNK         0.0839 
     98 H98        27.5331  -30.0240  -39.4877 H         1 UNK         0.0839 
     99 H99        27.4347  -28.3341  -39.9437 H         1 UNK         0.0839 
    100 H100       25.5278  -31.1932  -38.0723 H         1 UNK         0.2998 
    101 H101       23.4722  -32.8852  -38.9152 H         1 UNK         0.0822 
    102 H102       24.3847  -32.8201  -36.6069 H         1 UNK         0.0787 
    103 H103       24.4501  -34.4583  -37.2294 H         1 UNK         0.0787 
    104 H104       25.9179  -33.4930  -37.1654 H         1 UNK         0.0787 
    105 H105       26.4088  -32.5701  -40.5108 H         1 UNK         0.3055 
    106 H106       26.9337  -35.1867  -41.5078 H         1 UNK         0.1106 
    107 H107       28.5444  -33.2980  -41.7037 H         1 UNK         0.0828 
    108 H108       28.1603  -33.9273  -43.2959 H         1 UNK         0.0828 
    109 H109       27.4286  -32.4232  -42.7545 H         1 UNK         0.0828 
    110 H110       24.2642  -33.0718  -42.1332 H         1 UNK         0.2931 
    111 H111       23.4364  -34.1226  -44.6612 H         1 UNK         0.0412 
    112 H112       23.4235  -35.7071  -41.5076 H         1 UNK         0.3472 
    113 H113       22.3717  -37.0114  -42.0099 H         1 UNK         0.3472 
    114 H114       22.5463  -32.0115  -43.8835 H         1 UNK         0.0970 
    115 H115       21.2348  -33.1234  -44.1408 H         1 UNK         0.0970 
    116 H116       20.9996  -30.4920  -40.8178 H         1 UNK         0.0612 
    117 H117       22.0451  -30.3191  -42.2021 H         1 UNK         0.0612 
@<TRIPOS>BOND
     1    1    2 1    
     2    1   62 1    
     3    1   63 1    
     4    1   64 1    
     5    2    3 2    
     6    2    4 am   BACKBONE|DICT|INTERRES
     7    4    5 1    
     8    4   65 1    
     9    5    6 1    
    10    5   25 1    
    11    5   66 1    
    12    6    7 1    
    13    6   67 1    
    14    6   68 1    
    15    7    8 1    
    16    8    9 1    
    17    8   69 1    
    18    8   70 1    
    19    9   10 ar   
    20    9   14 ar   
    21   10   11 ar   
    22   10   71 1    
    23   11   12 ar   
    24   11   61 1    
    25   12   13 ar   
    26   12   72 1    
    27   13   14 ar   
    28   13   15 1    
    29   14   73 1    
    30   15   16 1    
    31   15   74 1    
    32   15   75 1    
    33   16   17 1    
    34   17   18 1    
    35   17   76 1    
    36   17   77 1    
    37   18   19 1    
    38   18   27 1    
    39   18   78 1    
    40   19   20 am   BACKBONE|DICT|INTERRES
    41   19   79 1    
    42   20   21 2    
    43   20   22 1    
    44   22   23 1    
    45   22   24 1    
    46   22   80 1    
    47   23   81 1    
    48   23   82 1    
    49   23   83 1    
    50   24   25 am   BACKBONE|DICT|INTERRES
    51   24   84 1    
    52   25   26 2    
    53   27   28 2    
    54   27   29 am   BACKBONE|DICT|INTERRES
    55   29   30 1    
    56   29   85 1    
    57   30   31 1    
    58   30   32 1    
    59   30   86 1    
    60   31   87 1    
    61   31   88 1    
    62   31   89 1    
    63   32   33 2    
    64   32   34 am   BACKBONE|DICT|INTERRES
    65   34   35 1    
    66   34   90 1    
    67   35   36 1    
    68   35   37 1    
    69   35   91 1    
    70   36   92 1    
    71   36   93 1    
    72   36   94 1    
    73   37   38 2    
    74   37   39 am   BACKBONE|DICT|INTERRES
    75   39   40 1    
    76   39   95 1    
    77   40   41 1    
    78   40   42 1    
    79   40   96 1    
    80   41   97 1    
    81   41   98 1    
    82   41   99 1    
    83   42   43 2    
    84   42   44 am   BACKBONE|DICT|INTERRES
    85   44   45 1    
    86   44  100 1    
    87   45   46 1    
    88   45   47 1    
    89   45  101 1    
    90   46  102 1    
    91   46  103 1    
    92   46  104 1    
    93   47   48 2    
    94   47   49 am   BACKBONE|DICT|INTERRES
    95   49   50 1    
    96   49  105 1    
    97   50   51 1    
    98   50   52 1    
    99   50  106 1    
   100   51  107 1    
   101   51  108 1    
   102   51  109 1    
   103   52   53 2    
   104   52   54 am   BACKBONE|DICT|INTERRES
   105   54   55 1    
   106   54  110 1    
   107   55   56 1    
   108   55   59 1    
   109   55  111 1    
   110   56   57 am   BACKBONE|DICT|INTERRES
   111   56   58 2    
   112   57  112 1    
   113   57  113 1    
   114   59   60 1    
   115   59  114 1    
   116   59  115 1    
   117   60   61 1    
   118   61  116 1    
   119   61  117 1    
@<TRIPOS>SUBSTRUCTURE
     1 UNK         1 GROUP             0       ****    0 ROOT    
