@<TRIPOS>MOLECULE
3R8
117   119    1
SMALL
USER_CHARGES


@<TRIPOS>ATOM
      1 CA         14.2602  -23.9648  -44.4937 C.3       0 UNK        -0.2013 
      2 C          15.4590  -24.8434  -44.8165 C.2       0 UNK         0.4866 
      3 O          15.9652  -24.8045  -45.9391 O.2       0 UNK        -0.5176 
      4 N          15.9263  -25.6344  -43.8423 N.am      1 UNK        -0.4884 
      5 CA         17.0661  -26.5501  -43.9647 C.3       1 UNK         0.0853 
      6 C6         16.9916  -27.7065  -42.9302 C.3       10 UNK        -0.0849 
      7 S7         15.5329  -28.7914  -43.1265 S.3       10 UNK        -0.2776 
      8 C8         15.8362  -29.6556  -44.7081 C.3       10 UNK         0.0316 
      9 C9         17.1002  -30.5063  -44.6959 C.ar      10 UNK        -0.0863 
     10 C10        17.0479  -31.8626  -44.3616 C.ar      10 UNK        -0.1009 
     11 C11        18.2100  -32.6412  -44.3733 C.ar      10 UNK        -0.0712 
     12 C12        19.4320  -32.0485  -44.7134 C.ar      10 UNK        -0.0894 
     13 C13        19.5038  -30.6899  -45.0398 C.ar      10 UNK        -0.0745 
     14 C14        18.3256  -29.9352  -45.0450 C.ar      10 UNK        -0.0972 
     15 C15        20.8706  -30.0583  -45.3078 C.3       10 UNK         0.0209 
     16 S16        20.8340  -28.5032  -46.2607 S.3       10 UNK        -0.2568 
     17 C17        22.4765  -27.7927  -45.8814 C.3       10 UNK        -0.0983 
     18 CA         22.5145  -26.8297  -44.6572 C.3       3 UNK         0.0876 
     19 N          21.3804  -25.9092  -44.6048 N.am      3 UNK        -0.4424 
     20 C          21.1731  -24.8129  -45.3302 C.2       2 UNK         0.4918 
     21 O          21.9631  -24.3948  -46.1781 O.2       2 UNK        -0.4875 
     22 CA         19.8522  -24.0584  -45.0381 C.3       2 UNK         0.0481 
     23 CB         19.5419  -22.9900  -46.1023 C.3       2 UNK        -0.1831 
     24 N          18.6685  -24.9208  -44.8787 N.am      2 UNK        -0.4498 
     25 C          18.4079  -25.7868  -43.8875 C.2       1 UNK         0.5027 
     26 O          19.1884  -25.9992  -42.9549 O.2       1 UNK        -0.4969 
     27 C          22.6931  -27.5718  -43.3135 C.2       3 UNK         0.5005 
     28 O          23.7017  -28.2620  -43.1451 O.2       3 UNK        -0.5279 
     29 N          21.7533  -27.4177  -42.3601 N.am      4 UNK        -0.4463 
     30 CA         21.7487  -28.0809  -41.0498 C.3       4 UNK         0.0283 
     31 CB         20.4605  -27.7104  -40.2981 C.3       4 UNK        -0.1875 
     32 C          22.9739  -27.7806  -40.1715 C.2       4 UNK         0.4949 
     33 O          23.3314  -28.6134  -39.3414 O.2       4 UNK        -0.5039 
     34 N          23.6259  -26.6318  -40.3965 N.am      5 UNK        -0.4663 
     35 CA         24.8880  -26.2503  -39.7554 C.3       5 UNK         0.0242 
     36 CB         25.2304  -24.8026  -40.1426 C.3       5 UNK        -0.1982 
     37 C          26.0640  -27.1897  -40.0902 C.2       5 UNK         0.5017 
     38 O          26.9997  -27.2763  -39.2940 O.2       5 UNK        -0.5012 
     39 N          25.9945  -27.8701  -41.2432 N.am      6 UNK        -0.4439 
     40 CA         26.9690  -28.8652  -41.6877 C.3       6 UNK         0.0297 
     41 CB         27.4003  -28.5431  -43.1285 C.3       6 UNK        -0.2006 
     42 C          26.3919  -30.2862  -41.6077 C.2       6 UNK         0.4892 
     43 O          27.0879  -31.1926  -41.1492 O.2       6 UNK        -0.5089 
     44 N          25.1485  -30.4653  -42.0750 N.am      7 UNK        -0.4243 
     45 CA         24.5182  -31.7759  -42.2505 C.3       7 UNK         0.0196 
     46 CB         23.4504  -31.6575  -43.3477 C.3       7 UNK        -0.2007 
     47 C          23.8741  -32.3541  -40.9812 C.2       7 UNK         0.5020 
     48 O          23.5412  -33.5393  -40.9847 O.2       7 UNK        -0.5147 
     49 N          23.6241  -31.5209  -39.9598 N.am      8 UNK        -0.4734 
     50 CA         22.8789  -31.7916  -38.7152 C.3       8 UNK         0.0238 
     51 CB         23.5125  -32.9361  -37.8995 C.3       8 UNK        -0.1912 
     52 C          21.3657  -32.0154  -38.9153 C.2       8 UNK         0.5038 
     53 O          20.5771  -31.5336  -38.1016 O.2       8 UNK        -0.5046 
     54 N          20.9916  -32.7249  -39.9865 N.am      9 UNK        -0.4200 
     55 CA         19.6178  -32.9561  -40.4538 C.3       9 UNK         0.0839 
     56 C          18.8623  -31.6409  -40.7983 C.2       9 UNK         0.5513 
     57 N          19.4783  -30.7312  -41.5410 N.am      9 UNK        -0.7519 
     58 O          17.7266  -31.4422  -40.3751 O.2       9 UNK        -0.4960 
     59 C59        19.6311  -33.9686  -41.6312 C.3       10 UNK        -0.0876 
     60 S60        17.9804  -34.4483  -42.2522 S.3       10 UNK        -0.2414 
     61 C61        18.1382  -34.1268  -44.0405 C.3       10 UNK         0.0169 
     62 H62        13.4338  -24.1977  -45.1646 H         1 UNK         0.0903 
     63 H63        13.9153  -24.1052  -43.4695 H         1 UNK         0.0903 
     64 H64        14.5195  -22.9144  -44.6239 H         1 UNK         0.0903 
     65 H65        15.4785  -25.6202  -42.9365 H         1 UNK         0.3096 
     66 H66        17.0358  -26.9927  -44.9612 H         1 UNK         0.1121 
     67 H67        17.8876  -28.3262  -42.9611 H         1 UNK         0.0849 
     68 H68        16.9648  -27.2981  -41.9181 H         1 UNK         0.0849 
     69 H69        14.9737  -30.2883  -44.9230 H         1 UNK         0.0865 
     70 H70        15.8755  -28.9325  -45.5234 H         1 UNK         0.0865 
     71 H71        16.1031  -32.3156  -44.0934 H         1 UNK         0.1346 
     72 H72        20.3344  -32.6443  -44.7114 H         1 UNK         0.1412 
     73 H73        18.3572  -28.8873  -45.2978 H         1 UNK         0.1426 
     74 H74        21.5253  -30.7674  -45.8168 H         1 UNK         0.0716 
     75 H75        21.3168  -29.8482  -44.3394 H         1 UNK         0.0716 
     76 H76        23.2115  -28.5945  -45.7857 H         1 UNK         0.0695 
     77 H77        22.7809  -27.2341  -46.7677 H         1 UNK         0.0695 
     78 H78        23.4153  -26.2195  -44.7523 H         1 UNK         0.0983 
     79 H79        20.6324  -26.1450  -43.9612 H         1 UNK         0.3095 
     80 H80        20.0022  -23.5392  -44.0896 H         1 UNK         0.0454 
     81 H81        20.3587  -22.2724  -46.1914 H         1 UNK         0.0851 
     82 H82        19.3895  -23.4361  -47.0857 H         1 UNK         0.0851 
     83 H83        18.6458  -22.4235  -45.8481 H         1 UNK         0.0851 
     84 H84        17.9399  -24.8100  -45.5779 H         1 UNK         0.2976 
     85 H85        20.9504  -26.8252  -42.5328 H         1 UNK         0.3116 
     86 H86        21.7461  -29.1566  -41.2315 H         1 UNK         0.0646 
     87 H87        20.3896  -28.2556  -39.3555 H         1 UNK         0.0847 
     88 H88        19.5710  -27.9549  -40.8774 H         1 UNK         0.0847 
     89 H89        20.4210  -26.6455  -40.0656 H         1 UNK         0.0847 
     90 H90        23.2546  -26.0005  -41.0913 H         1 UNK         0.3040 
     91 H91        24.7390  -26.2934  -38.6741 H         1 UNK         0.1015 
     92 H92        24.4448  -24.1122  -39.8347 H         1 UNK         0.0786 
     93 H93        25.3721  -24.6946  -41.2187 H         1 UNK         0.0786 
     94 H94        26.1524  -24.4769  -39.6585 H         1 UNK         0.0786 
     95 H95        25.1695  -27.7545  -41.8224 H         1 UNK         0.3172 
     96 H96        27.8611  -28.8350  -41.0585 H         1 UNK         0.0595 
     97 H97        28.1221  -29.2753  -43.4931 H         1 UNK         0.0839 
     98 H98        27.8752  -27.5637  -43.1883 H         1 UNK         0.0839 
     99 H99        26.5547  -28.5464  -43.8179 H         1 UNK         0.0839 
    100 H100       24.6434  -29.6677  -42.4561 H         1 UNK         0.2998 
    101 H101       25.2757  -32.4870  -42.5878 H         1 UNK         0.0822 
    102 H102       22.6282  -31.0261  -43.0154 H         1 UNK         0.0787 
    103 H103       23.8590  -31.2311  -44.2642 H         1 UNK         0.0787 
    104 H104       23.0330  -32.6334  -43.5997 H         1 UNK         0.0787 
    105 H105       23.8994  -30.5508  -40.0677 H         1 UNK         0.3055 
    106 H106       22.9722  -30.8854  -38.1148 H         1 UNK         0.1106 
    107 H107       23.4186  -33.9007  -38.3986 H         1 UNK         0.0828 
    108 H108       24.5714  -32.7535  -37.7174 H         1 UNK         0.0828 
    109 H109       23.0281  -33.0306  -36.9268 H         1 UNK         0.0828 
    110 H110       21.7392  -33.1142  -40.5523 H         1 UNK         0.2931 
    111 H111       19.0829  -33.4242  -39.6252 H         1 UNK         0.0412 
    112 H112       18.9768  -29.8964  -41.7895 H         1 UNK         0.3472 
    113 H113       20.3973  -30.9056  -41.9062 H         1 UNK         0.3472 
    114 H114       20.2336  -33.5776  -42.4512 H         1 UNK         0.0970 
    115 H115       20.1324  -34.8848  -41.3151 H         1 UNK         0.0970 
    116 H116       19.0137  -34.6525  -44.4250 H         1 UNK         0.0612 
    117 H117       17.2773  -34.5642  -44.5481 H         1 UNK         0.0612 
@<TRIPOS>BOND
     1    1    2 1    
     2    1   62 1    
     3    1   63 1    
     4    1   64 1    
     5    2    3 2    
     6    2    4 am   BACKBONE|DICT|INTERRES
     7    4    5 1    
     8    4   65 1    
     9    5    6 1    
    10    5   25 1    
    11    5   66 1    
    12    6    7 1    
    13    6   67 1    
    14    6   68 1    
    15    7    8 1    
    16    8    9 1    
    17    8   69 1    
    18    8   70 1    
    19    9   10 ar   
    20    9   14 ar   
    21   10   11 ar   
    22   10   71 1    
    23   11   12 ar   
    24   11   61 1    
    25   12   13 ar   
    26   12   72 1    
    27   13   14 ar   
    28   13   15 1    
    29   14   73 1    
    30   15   16 1    
    31   15   74 1    
    32   15   75 1    
    33   16   17 1    
    34   17   18 1    
    35   17   76 1    
    36   17   77 1    
    37   18   19 1    
    38   18   27 1    
    39   18   78 1    
    40   19   20 am   BACKBONE|DICT|INTERRES
    41   19   79 1    
    42   20   21 2    
    43   20   22 1    
    44   22   23 1    
    45   22   24 1    
    46   22   80 1    
    47   23   81 1    
    48   23   82 1    
    49   23   83 1    
    50   24   25 am   BACKBONE|DICT|INTERRES
    51   24   84 1    
    52   25   26 2    
    53   27   28 2    
    54   27   29 am   BACKBONE|DICT|INTERRES
    55   29   30 1    
    56   29   85 1    
    57   30   31 1    
    58   30   32 1    
    59   30   86 1    
    60   31   87 1    
    61   31   88 1    
    62   31   89 1    
    63   32   33 2    
    64   32   34 am   BACKBONE|DICT|INTERRES
    65   34   35 1    
    66   34   90 1    
    67   35   36 1    
    68   35   37 1    
    69   35   91 1    
    70   36   92 1    
    71   36   93 1    
    72   36   94 1    
    73   37   38 2    
    74   37   39 am   BACKBONE|DICT|INTERRES
    75   39   40 1    
    76   39   95 1    
    77   40   41 1    
    78   40   42 1    
    79   40   96 1    
    80   41   97 1    
    81   41   98 1    
    82   41   99 1    
    83   42   43 2    
    84   42   44 am   BACKBONE|DICT|INTERRES
    85   44   45 1    
    86   44  100 1    
    87   45   46 1    
    88   45   47 1    
    89   45  101 1    
    90   46  102 1    
    91   46  103 1    
    92   46  104 1    
    93   47   48 2    
    94   47   49 am   BACKBONE|DICT|INTERRES
    95   49   50 1    
    96   49  105 1    
    97   50   51 1    
    98   50   52 1    
    99   50  106 1    
   100   51  107 1    
   101   51  108 1    
   102   51  109 1    
   103   52   53 2    
   104   52   54 am   BACKBONE|DICT|INTERRES
   105   54   55 1    
   106   54  110 1    
   107   55   56 1    
   108   55   59 1    
   109   55  111 1    
   110   56   57 am   BACKBONE|DICT|INTERRES
   111   56   58 2    
   112   57  112 1    
   113   57  113 1    
   114   59   60 1    
   115   59  114 1    
   116   59  115 1    
   117   60   61 1    
   118   61  116 1    
   119   61  117 1    
@<TRIPOS>SUBSTRUCTURE
     1 UNK         1 GROUP             0       ****    0 ROOT    
