@<TRIPOS>MOLECULE
3R8
117   119    1
SMALL
USER_CHARGES


@<TRIPOS>ATOM
      1 CA         21.0393  -24.6504  -39.6999 C.3       0 UNK        -0.2013 
      2 C          19.8859  -24.6372  -40.6906 C.2       0 UNK         0.4866 
      3 O          18.8989  -23.9337  -40.4720 O.2       0 UNK        -0.5176 
      4 N          20.0054  -25.4145  -41.7704 N.am      1 UNK        -0.4884 
      5 CA         19.0129  -25.5430  -42.8396 C.3       1 UNK         0.0853 
      6 C6         18.6704  -27.0337  -43.1017 C.3       10 UNK        -0.0849 
      7 S7         17.9394  -27.8500  -41.6418 S.3       10 UNK        -0.2776 
      8 C8         16.9219  -29.1569  -42.4034 C.3       10 UNK         0.0316 
      9 C9         17.7314  -30.0558  -43.3288 C.ar      10 UNK        -0.0863 
     10 C10        18.7106  -30.9074  -42.8072 C.ar      10 UNK        -0.1009 
     11 C11        19.4667  -31.7218  -43.6551 C.ar      10 UNK        -0.0712 
     12 C12        19.2352  -31.6844  -45.0328 C.ar      10 UNK        -0.0894 
     13 C13        18.2589  -30.8374  -45.5666 C.ar      10 UNK        -0.0745 
     14 C14        17.5046  -30.0314  -44.7089 C.ar      10 UNK        -0.0972 
     15 C15        18.0381  -30.7791  -47.0729 C.3       10 UNK         0.0209 
     16 S16        18.5399  -29.1791  -47.7911 S.3       10 UNK        -0.2568 
     17 C17        20.2830  -29.0623  -47.2598 C.3       10 UNK        -0.0983 
     18 CA         20.8956  -27.6549  -47.4665 C.3       3 UNK         0.0876 
     19 N          20.0588  -26.5966  -46.8936 N.am      3 UNK        -0.4424 
     20 C          20.1500  -25.2937  -47.1927 C.2       2 UNK         0.4918 
     21 O          20.9729  -24.8241  -47.9788 O.2       2 UNK        -0.4875 
     22 CA         19.1420  -24.3537  -46.5017 C.3       2 UNK         0.0481 
     23 CB         17.8938  -24.1710  -47.3798 C.3       2 UNK        -0.1831 
     24 N          18.7379  -24.8223  -45.1708 N.am      2 UNK        -0.4498 
     25 C          19.5628  -24.8714  -44.1148 C.2       1 UNK         0.5027 
     26 O          20.7163  -24.4335  -44.1460 O.2       1 UNK        -0.4969 
     27 C          22.3289  -27.6294  -46.8992 C.2       3 UNK         0.5005 
     28 O          23.2833  -27.8411  -47.6494 O.2       3 UNK        -0.5279 
     29 N          22.4506  -27.3941  -45.5864 N.am      4 UNK        -0.4463 
     30 CA         23.6935  -27.4068  -44.8227 C.3       4 UNK         0.0283 
     31 CB         24.1700  -28.8551  -44.5984 C.3       4 UNK        -0.1875 
     32 C          23.4431  -26.7184  -43.4789 C.2       4 UNK         0.4949 
     33 O          22.3225  -26.7619  -42.9653 O.2       4 UNK        -0.5039 
     34 N          24.5001  -26.1376  -42.9012 N.am      5 UNK        -0.4663 
     35 CA         24.4791  -25.3901  -41.6383 C.3       5 UNK         0.0242 
     36 CB         25.6799  -24.4251  -41.6166 C.3       5 UNK        -0.1982 
     37 C          24.4162  -26.2831  -40.3780 C.2       5 UNK         0.5017 
     38 O          25.0682  -25.9766  -39.3784 O.2       5 UNK        -0.5012 
     39 N          23.6254  -27.3588  -40.4322 N.am      6 UNK        -0.4439 
     40 CA         23.3278  -28.2622  -39.3278 C.3       6 UNK         0.0297 
     41 CB         24.4297  -29.3283  -39.1929 C.3       6 UNK        -0.2006 
     42 C          21.9681  -28.9087  -39.6035 C.2       6 UNK         0.4892 
     43 O          21.7100  -29.3066  -40.7409 O.2       6 UNK        -0.5089 
     44 N          21.1338  -29.0091  -38.5610 N.am      7 UNK        -0.4243 
     45 CA         19.8216  -29.6596  -38.6253 C.3       7 UNK         0.0196 
     46 CB         18.9527  -29.1787  -37.4523 C.3       7 UNK        -0.2007 
     47 C          19.9225  -31.1941  -38.6362 C.2       7 UNK         0.5020 
     48 O          19.0579  -31.8527  -39.2132 O.2       7 UNK        -0.5147 
     49 N          20.9733  -31.7356  -38.0063 N.am      8 UNK        -0.4734 
     50 CA         21.3287  -33.1511  -38.0647 C.3       8 UNK         0.0238 
     51 CB         22.1055  -33.5362  -36.7945 C.3       8 UNK        -0.1912 
     52 C          22.1746  -33.3958  -39.3210 C.2       8 UNK         0.5038 
     53 O          23.1910  -32.7210  -39.5011 O.2       8 UNK        -0.5046 
     54 N          21.7441  -34.3446  -40.1583 N.am      9 UNK        -0.4200 
     55 CA         22.3983  -34.6834  -41.4326 C.3       9 UNK         0.0839 
     56 C          23.6525  -35.5953  -41.2961 C.2       9 UNK         0.5513 
     57 N          23.9741  -36.1189  -40.1191 N.am      9 UNK        -0.7519 
     58 O          24.3512  -35.8272  -42.2793 O.2       9 UNK        -0.4960 
     59 C59        21.3913  -35.2672  -42.4611 C.3       10 UNK        -0.0876 
     60 S60        19.8729  -34.2782  -42.7063 S.3       10 UNK        -0.2414 
     61 C61        20.5445  -32.6317  -43.0894 C.3       10 UNK         0.0169 
     62 H62        21.5321  -25.6208  -39.6858 H         1 UNK         0.0903 
     63 H63        21.7719  -23.8868  -39.9593 H         1 UNK         0.0903 
     64 H64        20.6777  -24.4485  -38.6919 H         1 UNK         0.0903 
     65 H65        20.8753  -25.9047  -41.9622 H         1 UNK         0.3096 
     66 H66        18.0939  -25.0171  -42.5715 H         1 UNK         0.1121 
     67 H67        19.5630  -27.5936  -43.3900 H         1 UNK         0.0849 
     68 H68        17.9647  -27.1298  -43.9281 H         1 UNK         0.0849 
     69 H69        16.4772  -29.7636  -41.6133 H         1 UNK         0.0865 
     70 H70        16.0901  -28.6951  -42.9377 H         1 UNK         0.0865 
     71 H71        18.8931  -30.9261  -41.7413 H         1 UNK         0.1346 
     72 H72        19.8242  -32.3097  -45.6898 H         1 UNK         0.1412 
     73 H73        16.7536  -29.3725  -45.1234 H         1 UNK         0.1426 
     74 H74        16.9821  -30.9480  -47.2879 H         1 UNK         0.0716 
     75 H75        18.5847  -31.5780  -47.5765 H         1 UNK         0.0716 
     76 H76        20.8565  -29.8131  -47.8069 H         1 UNK         0.0695 
     77 H77        20.3463  -29.3366  -46.2058 H         1 UNK         0.0695 
     78 H78        20.9673  -27.4745  -48.5416 H         1 UNK         0.0983 
     79 H79        19.3214  -26.9004  -46.2771 H         1 UNK         0.3095 
     80 H80        19.6214  -23.3789  -46.3883 H         1 UNK         0.0454 
     81 H81        18.1647  -23.7962  -48.3679 H         1 UNK         0.0851 
     82 H82        17.2014  -23.4515  -46.9425 H         1 UNK         0.0851 
     83 H83        17.3579  -25.1100  -47.5247 H         1 UNK         0.0851 
     84 H84        17.7907  -25.1611  -45.0770 H         1 UNK         0.2976 
     85 H85        21.6321  -27.1737  -45.0332 H         1 UNK         0.3116 
     86 H86        24.4529  -26.8458  -45.3715 H         1 UNK         0.0646 
     87 H87        25.0842  -28.8809  -44.0041 H         1 UNK         0.0847 
     88 H88        23.4206  -29.4457  -44.0689 H         1 UNK         0.0847 
     89 H89        24.3868  -29.3576  -45.5410 H         1 UNK         0.0847 
     90 H90        25.3950  -26.1961  -43.3668 H         1 UNK         0.3040 
     91 H91        23.5727  -24.7807  -41.6254 H         1 UNK         0.1015 
     92 H92        25.6528  -23.7814  -40.7361 H         1 UNK         0.0786 
     93 H93        25.6798  -23.7706  -42.4885 H         1 UNK         0.0786 
     94 H94        26.6285  -24.9631  -41.5991 H         1 UNK         0.0786 
     95 H95        23.0835  -27.5233  -41.2779 H         1 UNK         0.3172 
     96 H96        23.2661  -27.6865  -38.4016 H         1 UNK         0.0595 
     97 H97        24.5268  -29.9214  -40.1035 H         1 UNK         0.0839 
     98 H98        24.2081  -30.0201  -38.3793 H         1 UNK         0.0839 
     99 H99        25.3989  -28.8769  -38.9811 H         1 UNK         0.0839 
    100 H100       21.4195  -28.6450  -37.6630 H         1 UNK         0.2998 
    101 H101       19.3330  -29.3604  -39.5543 H         1 UNK         0.0822 
    102 H102       17.9612  -29.6322  -37.4925 H         1 UNK         0.0787 
    103 H103       19.3917  -29.4385  -36.4883 H         1 UNK         0.0787 
    104 H104       18.8134  -28.0978  -37.4805 H         1 UNK         0.0787 
    105 H105       21.6594  -31.1163  -37.6011 H         1 UNK         0.3055 
    106 H106       20.4194  -33.7556  -38.1086 H         1 UNK         0.1106 
    107 H107       21.5101  -33.3620  -35.8980 H         1 UNK         0.0828 
    108 H108       22.3706  -34.5941  -36.8058 H         1 UNK         0.0828 
    109 H109       23.0324  -32.9694  -36.6964 H         1 UNK         0.0828 
    110 H110       20.8987  -34.8535  -39.9459 H         1 UNK         0.2931 
    111 H111       22.7805  -33.7536  -41.8573 H         1 UNK         0.0412 
    112 H112       24.7914  -36.7047  -40.0455 H         1 UNK         0.3472 
    113 H113       23.4111  -35.9329  -39.3051 H         1 UNK         0.3472 
    114 H114       21.8716  -35.3840  -43.4346 H         1 UNK         0.0970 
    115 H115       21.0852  -36.2703  -42.1583 H         1 UNK         0.0970 
    116 H116       21.3640  -32.7269  -43.8035 H         1 UNK         0.0612 
    117 H117       20.9663  -32.1893  -42.1850 H         1 UNK         0.0612 
@<TRIPOS>BOND
     1    1    2 1    
     2    1   62 1    
     3    1   63 1    
     4    1   64 1    
     5    2    3 2    
     6    2    4 am   BACKBONE|DICT|INTERRES
     7    4    5 1    
     8    4   65 1    
     9    5    6 1    
    10    5   25 1    
    11    5   66 1    
    12    6    7 1    
    13    6   67 1    
    14    6   68 1    
    15    7    8 1    
    16    8    9 1    
    17    8   69 1    
    18    8   70 1    
    19    9   10 ar   
    20    9   14 ar   
    21   10   11 ar   
    22   10   71 1    
    23   11   12 ar   
    24   11   61 1    
    25   12   13 ar   
    26   12   72 1    
    27   13   14 ar   
    28   13   15 1    
    29   14   73 1    
    30   15   16 1    
    31   15   74 1    
    32   15   75 1    
    33   16   17 1    
    34   17   18 1    
    35   17   76 1    
    36   17   77 1    
    37   18   19 1    
    38   18   27 1    
    39   18   78 1    
    40   19   20 am   BACKBONE|DICT|INTERRES
    41   19   79 1    
    42   20   21 2    
    43   20   22 1    
    44   22   23 1    
    45   22   24 1    
    46   22   80 1    
    47   23   81 1    
    48   23   82 1    
    49   23   83 1    
    50   24   25 am   BACKBONE|DICT|INTERRES
    51   24   84 1    
    52   25   26 2    
    53   27   28 2    
    54   27   29 am   BACKBONE|DICT|INTERRES
    55   29   30 1    
    56   29   85 1    
    57   30   31 1    
    58   30   32 1    
    59   30   86 1    
    60   31   87 1    
    61   31   88 1    
    62   31   89 1    
    63   32   33 2    
    64   32   34 am   BACKBONE|DICT|INTERRES
    65   34   35 1    
    66   34   90 1    
    67   35   36 1    
    68   35   37 1    
    69   35   91 1    
    70   36   92 1    
    71   36   93 1    
    72   36   94 1    
    73   37   38 2    
    74   37   39 am   BACKBONE|DICT|INTERRES
    75   39   40 1    
    76   39   95 1    
    77   40   41 1    
    78   40   42 1    
    79   40   96 1    
    80   41   97 1    
    81   41   98 1    
    82   41   99 1    
    83   42   43 2    
    84   42   44 am   BACKBONE|DICT|INTERRES
    85   44   45 1    
    86   44  100 1    
    87   45   46 1    
    88   45   47 1    
    89   45  101 1    
    90   46  102 1    
    91   46  103 1    
    92   46  104 1    
    93   47   48 2    
    94   47   49 am   BACKBONE|DICT|INTERRES
    95   49   50 1    
    96   49  105 1    
    97   50   51 1    
    98   50   52 1    
    99   50  106 1    
   100   51  107 1    
   101   51  108 1    
   102   51  109 1    
   103   52   53 2    
   104   52   54 am   BACKBONE|DICT|INTERRES
   105   54   55 1    
   106   54  110 1    
   107   55   56 1    
   108   55   59 1    
   109   55  111 1    
   110   56   57 am   BACKBONE|DICT|INTERRES
   111   56   58 2    
   112   57  112 1    
   113   57  113 1    
   114   59   60 1    
   115   59  114 1    
   116   59  115 1    
   117   60   61 1    
   118   61  116 1    
   119   61  117 1    
@<TRIPOS>SUBSTRUCTURE
     1 UNK         1 GROUP             0       ****    0 ROOT    
