@<TRIPOS>MOLECULE
3R8
117   119    1
SMALL
USER_CHARGES


@<TRIPOS>ATOM
      1 CA         15.7712  -22.3503  -41.4055 C.3       0 UNK        -0.2013 
      2 C          16.4949  -22.9682  -42.5925 C.2       0 UNK         0.4866 
      3 O          17.0070  -22.2408  -43.4441 O.2       0 UNK        -0.5176 
      4 N          16.5359  -24.3049  -42.6611 N.am      1 UNK        -0.4884 
      5 CA         17.2456  -25.0657  -43.6913 C.3       1 UNK         0.0853 
      6 C6         16.7087  -26.5193  -43.7703 C.3       10 UNK        -0.0849 
      7 S7         17.4417  -27.4705  -45.1413 S.3       10 UNK        -0.2776 
      8 C8         16.6826  -29.1281  -44.9504 C.3       10 UNK         0.0316 
      9 C9         17.7055  -30.2360  -45.1943 C.ar      10 UNK        -0.0863 
     10 C10        17.8666  -31.2960  -44.2916 C.ar      10 UNK        -0.1009 
     11 C11        18.8617  -32.2604  -44.4993 C.ar      10 UNK        -0.0712 
     12 C12        19.7213  -32.1371  -45.5968 C.ar      10 UNK        -0.0894 
     13 C13        19.5590  -31.0922  -46.5100 C.ar      10 UNK        -0.0745 
     14 C14        18.5175  -30.1831  -46.3285 C.ar      10 UNK        -0.0972 
     15 C15        20.5059  -30.9287  -47.6901 C.3       10 UNK         0.0209 
     16 S16        21.9969  -29.9696  -47.2532 S.3       10 UNK        -0.2568 
     17 C17        21.3316  -28.3070  -46.8647 C.3       10 UNK        -0.0983 
     18 CA         21.8147  -27.7043  -45.5206 C.3       3 UNK         0.0876 
     19 N          21.2522  -26.3704  -45.2946 N.am      3 UNK        -0.4424 
     20 C          21.7404  -25.4919  -44.4076 C.2       2 UNK         0.4918 
     21 O          22.7369  -25.7030  -43.7158 O.2       2 UNK        -0.4875 
     22 CA         20.9668  -24.1740  -44.2387 C.3       2 UNK         0.0481 
     23 CB         21.4370  -23.1377  -45.2710 C.3       2 UNK        -0.1831 
     24 N          19.5126  -24.3436  -44.3342 N.am      2 UNK        -0.4498 
     25 C          18.7672  -24.9919  -43.4272 C.2       1 UNK         0.5027 
     26 O          19.2353  -25.5178  -42.4151 O.2       1 UNK        -0.4969 
     27 C          21.6156  -28.6127  -44.2853 C.2       3 UNK         0.5005 
     28 O          22.5402  -29.3485  -43.9437 O.2       3 UNK        -0.5279 
     29 N          20.4823  -28.4778  -43.5734 N.am      4 UNK        -0.4463 
     30 CA         20.2370  -29.1584  -42.2953 C.3       4 UNK         0.0283 
     31 CB         18.8149  -28.8861  -41.7833 C.3       4 UNK        -0.1875 
     32 C          21.2395  -28.7630  -41.2048 C.2       4 UNK         0.4949 
     33 O          21.6842  -29.6318  -40.4576 O.2       4 UNK        -0.5039 
     34 N          21.5838  -27.4698  -41.1380 N.am      5 UNK        -0.4663 
     35 CA         22.5925  -26.9425  -40.2182 C.3       5 UNK         0.0242 
     36 CB         22.5189  -25.4073  -40.1904 C.3       5 UNK        -0.1982 
     37 C          24.0097  -27.4258  -40.5685 C.2       5 UNK         0.5017 
     38 O          24.7622  -27.7861  -39.6634 O.2       5 UNK        -0.5012 
     39 N          24.3359  -27.4461  -41.8689 N.am      6 UNK        -0.4439 
     40 CA         25.6185  -27.9134  -42.4001 C.3       6 UNK         0.0297 
     41 CB         25.7411  -27.5156  -43.8798 C.3       6 UNK        -0.2006 
     42 C          25.8317  -29.4274  -42.2232 C.2       6 UNK         0.4892 
     43 O          26.9064  -29.8369  -41.7829 O.2       6 UNK        -0.5089 
     44 N          24.8133  -30.2277  -42.5671 N.am      7 UNK        -0.4243 
     45 CA         24.8362  -31.6912  -42.4794 C.3       7 UNK         0.0196 
     46 CB         23.8116  -32.2640  -43.4722 C.3       7 UNK        -0.2007 
     47 C          24.5733  -32.2311  -41.0616 C.2       7 UNK         0.5020 
     48 O          24.8000  -33.4192  -40.8307 O.2       7 UNK        -0.5147 
     49 N          24.1013  -31.3670  -40.1509 N.am      8 UNK        -0.4734 
     50 CA         23.6935  -31.6521  -38.7697 C.3       8 UNK         0.0238 
     51 CB         24.8900  -32.1264  -37.9166 C.3       8 UNK        -0.1912 
     52 C          22.4793  -32.5997  -38.7064 C.2       8 UNK         0.5038 
     53 O          22.4946  -33.5828  -37.9623 O.2       8 UNK        -0.5046 
     54 N          21.4469  -32.2749  -39.4946 N.am      9 UNK        -0.4200 
     55 CA         20.1589  -32.9871  -39.5409 C.3       9 UNK         0.0839 
     56 C          19.2410  -32.7191  -38.3128 C.2       9 UNK         0.5513 
     57 N          19.5054  -31.7132  -37.4870 N.am      9 UNK        -0.7519 
     58 O          18.2709  -33.4431  -38.1046 O.2       9 UNK        -0.4960 
     59 C59        19.3907  -32.7198  -40.8630 C.3       10 UNK        -0.0876 
     60 S60        20.3235  -33.2440  -42.3396 S.3       10 UNK        -0.2414 
     61 C61        18.9975  -33.4596  -43.5695 C.3       10 UNK         0.0169 
     62 H62        15.3580  -23.1075  -40.7395 H         1 UNK         0.0903 
     63 H63        16.4576  -21.7302  -40.8295 H         1 UNK         0.0903 
     64 H64        14.9521  -21.7205  -41.7520 H         1 UNK         0.0903 
     65 H65        16.1257  -24.8509  -41.9164 H         1 UNK         0.3096 
     66 H66        17.0394  -24.5924  -44.6544 H         1 UNK         0.1121 
     67 H67        16.8728  -27.0452  -42.8301 H         1 UNK         0.0849 
     68 H68        15.6279  -26.5032  -43.9205 H         1 UNK         0.0849 
     69 H69        16.2379  -29.2258  -43.9594 H         1 UNK         0.0865 
     70 H70        15.8648  -29.2307  -45.6648 H         1 UNK         0.0865 
     71 H71        17.2217  -31.3721  -43.4269 H         1 UNK         0.1346 
     72 H72        20.5134  -32.8589  -45.7424 H         1 UNK         0.1412 
     73 H73        18.3670  -29.3912  -47.0485 H         1 UNK         0.1426 
     74 H74        19.9974  -30.4437  -48.5249 H         1 UNK         0.0716 
     75 H75        20.8137  -31.9108  -48.0516 H         1 UNK         0.0716 
     76 H76        21.6382  -27.6480  -47.6784 H         1 UNK         0.0695 
     77 H77        20.2467  -28.3074  -46.9004 H         1 UNK         0.0695 
     78 H78        22.8944  -27.5731  -45.6193 H         1 UNK         0.0983 
     79 H79        20.4254  -26.1253  -45.8192 H         1 UNK         0.3095 
     80 H80        21.1943  -23.7846  -43.2439 H         1 UNK         0.0454 
     81 H81        22.5145  -22.9808  -45.2019 H         1 UNK         0.0851 
     82 H82        21.2189  -23.4517  -46.2924 H         1 UNK         0.0851 
     83 H83        20.9608  -22.1708  -45.1075 H         1 UNK         0.0851 
     84 H84        19.0540  -23.9074  -45.1218 H         1 UNK         0.2976 
     85 H85        19.7628  -27.8533  -43.9084 H         1 UNK         0.3116 
     86 H86        20.3427  -30.2288  -42.4781 H         1 UNK         0.0646 
     87 H87        18.6213  -29.4262  -40.8564 H         1 UNK         0.0847 
     88 H88        18.0610  -29.1984  -42.4981 H         1 UNK         0.0847 
     89 H89        18.6586  -27.8323  -41.5618 H         1 UNK         0.0847 
     90 H90        21.1410  -26.8150  -41.7702 H         1 UNK         0.3040 
     91 H91        22.3579  -27.3107  -39.2166 H         1 UNK         0.1015 
     92 H92        21.5268  -25.0637  -39.8967 H         1 UNK         0.0786 
     93 H93        22.7495  -24.9693  -41.1616 H         1 UNK         0.0786 
     94 H94        23.2303  -24.9976  -39.4721 H         1 UNK         0.0786 
     95 H95        23.6622  -27.0868  -42.5379 H         1 UNK         0.3172 
     96 H96        26.4095  -27.3999  -41.8494 H         1 UNK         0.0595 
     97 H97        26.7167  -27.7969  -44.2784 H         1 UNK         0.0839 
     98 H98        25.6341  -26.4388  -44.0130 H         1 UNK         0.0839 
     99 H99        24.9861  -28.0060  -44.4944 H         1 UNK         0.0839 
    100 H100       23.9691  -29.8154  -42.9664 H         1 UNK         0.2998 
    101 H101       25.8263  -32.0419  -42.7783 H         1 UNK         0.0822 
    102 H102       22.8007  -31.9314  -43.2360 H         1 UNK         0.0787 
    103 H103       24.0311  -31.9535  -44.4940 H         1 UNK         0.0787 
    104 H104       23.8092  -33.3546  -43.4552 H         1 UNK         0.0787 
    105 H105       23.9016  -30.4276  -40.4704 H         1 UNK         0.3055 
    106 H106       23.3552  -30.7017  -38.3531 H         1 UNK         0.1106 
    107 H107       25.2561  -33.1035  -38.2325 H         1 UNK         0.0828 
    108 H108       25.7200  -31.4222  -37.9728 H         1 UNK         0.0828 
    109 H109       24.6083  -32.2119  -36.8665 H         1 UNK         0.0828 
    110 H110       21.5130  -31.4172  -40.0373 H         1 UNK         0.2931 
    111 H111       20.3839  -34.0552  -39.5127 H         1 UNK         0.0412 
    112 H112       18.9046  -31.5542  -36.6933 H         1 UNK         0.3472 
    113 H113       20.2926  -31.1076  -37.6544 H         1 UNK         0.3472 
    114 H114       19.1426  -31.6644  -40.9585 H         1 UNK         0.0970 
    115 H115       18.4395  -33.2551  -40.8525 H         1 UNK         0.0970 
    116 H116       19.2270  -34.3451  -44.1640 H         1 UNK         0.0612 
    117 H117       18.0473  -33.6732  -43.0788 H         1 UNK         0.0612 
@<TRIPOS>BOND
     1    1    2 1    
     2    1   62 1    
     3    1   63 1    
     4    1   64 1    
     5    2    3 2    
     6    2    4 am   BACKBONE|DICT|INTERRES
     7    4    5 1    
     8    4   65 1    
     9    5    6 1    
    10    5   25 1    
    11    5   66 1    
    12    6    7 1    
    13    6   67 1    
    14    6   68 1    
    15    7    8 1    
    16    8    9 1    
    17    8   69 1    
    18    8   70 1    
    19    9   10 ar   
    20    9   14 ar   
    21   10   11 ar   
    22   10   71 1    
    23   11   12 ar   
    24   11   61 1    
    25   12   13 ar   
    26   12   72 1    
    27   13   14 ar   
    28   13   15 1    
    29   14   73 1    
    30   15   16 1    
    31   15   74 1    
    32   15   75 1    
    33   16   17 1    
    34   17   18 1    
    35   17   76 1    
    36   17   77 1    
    37   18   19 1    
    38   18   27 1    
    39   18   78 1    
    40   19   20 am   BACKBONE|DICT|INTERRES
    41   19   79 1    
    42   20   21 2    
    43   20   22 1    
    44   22   23 1    
    45   22   24 1    
    46   22   80 1    
    47   23   81 1    
    48   23   82 1    
    49   23   83 1    
    50   24   25 am   BACKBONE|DICT|INTERRES
    51   24   84 1    
    52   25   26 2    
    53   27   28 2    
    54   27   29 am   BACKBONE|DICT|INTERRES
    55   29   30 1    
    56   29   85 1    
    57   30   31 1    
    58   30   32 1    
    59   30   86 1    
    60   31   87 1    
    61   31   88 1    
    62   31   89 1    
    63   32   33 2    
    64   32   34 am   BACKBONE|DICT|INTERRES
    65   34   35 1    
    66   34   90 1    
    67   35   36 1    
    68   35   37 1    
    69   35   91 1    
    70   36   92 1    
    71   36   93 1    
    72   36   94 1    
    73   37   38 2    
    74   37   39 am   BACKBONE|DICT|INTERRES
    75   39   40 1    
    76   39   95 1    
    77   40   41 1    
    78   40   42 1    
    79   40   96 1    
    80   41   97 1    
    81   41   98 1    
    82   41   99 1    
    83   42   43 2    
    84   42   44 am   BACKBONE|DICT|INTERRES
    85   44   45 1    
    86   44  100 1    
    87   45   46 1    
    88   45   47 1    
    89   45  101 1    
    90   46  102 1    
    91   46  103 1    
    92   46  104 1    
    93   47   48 2    
    94   47   49 am   BACKBONE|DICT|INTERRES
    95   49   50 1    
    96   49  105 1    
    97   50   51 1    
    98   50   52 1    
    99   50  106 1    
   100   51  107 1    
   101   51  108 1    
   102   51  109 1    
   103   52   53 2    
   104   52   54 am   BACKBONE|DICT|INTERRES
   105   54   55 1    
   106   54  110 1    
   107   55   56 1    
   108   55   59 1    
   109   55  111 1    
   110   56   57 am   BACKBONE|DICT|INTERRES
   111   56   58 2    
   112   57  112 1    
   113   57  113 1    
   114   59   60 1    
   115   59  114 1    
   116   59  115 1    
   117   60   61 1    
   118   61  116 1    
   119   61  117 1    
@<TRIPOS>SUBSTRUCTURE
     1 UNK         1 GROUP             0       ****    0 ROOT    
