@<TRIPOS>MOLECULE
3R8
117   119    1
SMALL
USER_CHARGES


@<TRIPOS>ATOM
      1 CA         13.1309  -23.7335  -48.7349 C.3       0 UNK        -0.2013 
      2 C          14.4659  -24.4452  -48.5733 C.2       0 UNK         0.4866 
      3 O          15.4211  -24.1230  -49.2807 O.2       0 UNK        -0.5176 
      4 N          14.5387  -25.4159  -47.6537 N.am      1 UNK        -0.4884 
      5 CA         15.7594  -26.1538  -47.3158 C.3       1 UNK         0.0853 
      6 C6         15.4231  -27.4547  -46.5461 C.3       10 UNK        -0.0849 
      7 S7         16.7676  -28.6866  -46.6121 S.3       10 UNK        -0.2776 
      8 C8         16.2492  -29.8520  -45.3101 C.3       10 UNK         0.0316 
      9 C9         16.8869  -29.5267  -43.9659 C.ar      10 UNK        -0.0863 
     10 C10        18.0397  -30.2041  -43.5538 C.ar      10 UNK        -0.1009 
     11 C11        18.6208  -29.9258  -42.3129 C.ar      10 UNK        -0.0712 
     12 C12        18.0472  -28.9578  -41.4834 C.ar      10 UNK        -0.0894 
     13 C13        16.9082  -28.2593  -41.8938 C.ar      10 UNK        -0.0745 
     14 C14        16.3225  -28.5611  -43.1267 C.ar      10 UNK        -0.0972 
     15 C15        16.3189  -27.1624  -41.0200 C.3       10 UNK         0.0209 
     16 S16        16.7092  -25.5071  -41.6762 S.3       10 UNK        -0.2568 
     17 C17        18.4957  -25.3633  -41.3270 C.3       10 UNK        -0.0983 
     18 CA         19.3914  -25.8168  -42.5083 C.3       3 UNK         0.0876 
     19 N          19.0969  -25.0946  -43.7485 N.am      3 UNK        -0.4424 
     20 C          19.5154  -25.4787  -44.9596 C.2       2 UNK         0.4918 
     21 O          20.1811  -26.4944  -45.1721 O.2       2 UNK        -0.4875 
     22 CA         19.0825  -24.6030  -46.1435 C.3       2 UNK         0.0481 
     23 CB         20.2541  -24.3265  -47.1016 C.3       2 UNK        -0.1831 
     24 N          18.0125  -25.2830  -46.8691 N.am      2 UNK        -0.4498 
     25 C          16.7221  -25.2533  -46.5137 C.2       1 UNK         0.5027 
     26 O          16.2813  -24.5665  -45.5879 O.2       1 UNK        -0.4969 
     27 C          20.8840  -25.7105  -42.1343 C.2       3 UNK         0.5005 
     28 O          21.5273  -24.7000  -42.4333 O.2       3 UNK        -0.5279 
     29 N          21.3986  -26.7480  -41.4673 N.am      4 UNK        -0.4463 
     30 CA         22.7847  -26.8867  -41.0317 C.3       4 UNK         0.0283 
     31 CB         23.6626  -27.3248  -42.2222 C.3       4 UNK        -0.1875 
     32 C          22.8403  -27.9132  -39.8931 C.2       4 UNK         0.4949 
     33 O          21.8314  -28.5583  -39.5985 O.2       4 UNK        -0.5039 
     34 N          24.0231  -28.0644  -39.2941 N.am      5 UNK        -0.4663 
     35 CA         24.3527  -29.0997  -38.3194 C.3       5 UNK         0.0242 
     36 CB         24.1520  -28.5615  -36.8927 C.3       5 UNK        -0.1982 
     37 C          25.8074  -29.5172  -38.5605 C.2       5 UNK         0.5017 
     38 O          26.6044  -28.6852  -39.0036 O.2       5 UNK        -0.5012 
     39 N          26.1143  -30.7916  -38.2801 N.am      6 UNK        -0.4439 
     40 CA         27.3735  -31.4844  -38.5897 C.3       6 UNK         0.0297 
     41 CB         28.5499  -30.9049  -37.7747 C.3       6 UNK        -0.2006 
     42 C          27.6424  -31.5258  -40.1087 C.2       6 UNK         0.4892 
     43 O          28.7637  -31.2697  -40.5522 O.2       6 UNK        -0.5089 
     44 N          26.5861  -31.8243  -40.8734 N.am      7 UNK        -0.4243 
     45 CA         26.5648  -31.8396  -42.3326 C.3       7 UNK         0.0196 
     46 CB         26.2908  -30.4139  -42.8622 C.3       7 UNK        -0.2007 
     47 C          25.5420  -32.8962  -42.7713 C.2       7 UNK         0.5020 
     48 O          25.7016  -34.0636  -42.4128 O.2       7 UNK        -0.5147 
     49 N          24.4979  -32.4840  -43.5059 N.am      8 UNK        -0.4734 
     50 CA         23.3599  -33.3320  -43.8882 C.3       8 UNK         0.0238 
     51 CB         22.4803  -32.5821  -44.9022 C.3       8 UNK        -0.1912 
     52 C          22.5231  -33.7930  -42.6796 C.2       8 UNK         0.5038 
     53 O          21.9834  -34.8998  -42.7032 O.2       8 UNK        -0.5046 
     54 N          22.4683  -32.9450  -41.6471 N.am      9 UNK        -0.4200 
     55 CA         21.9691  -33.2610  -40.3065 C.3       9 UNK         0.0839 
     56 C          23.1789  -33.4365  -39.3556 C.2       9 UNK         0.5513 
     57 N          23.1287  -34.4054  -38.4538 N.am      9 UNK        -0.7519 
     58 O          24.1435  -32.6733  -39.4051 O.2       9 UNK        -0.4960 
     59 C59        21.0282  -32.1531  -39.7735 C.3       10 UNK        -0.0876 
     60 S60        19.4797  -32.0135  -40.7285 S.3       10 UNK        -0.2414 
     61 C61        19.8782  -30.6526  -41.8671 C.3       10 UNK         0.0169 
     62 H62        12.3734  -24.1271  -48.0572 H         1 UNK         0.0903 
     63 H63        13.2467  -22.6691  -48.5322 H         1 UNK         0.0903 
     64 H64        12.7653  -23.8485  -49.7550 H         1 UNK         0.0903 
     65 H65        13.7328  -25.6119  -47.0769 H         1 UNK         0.3096 
     66 H66        16.2400  -26.4271  -48.2585 H         1 UNK         0.1121 
     67 H67        14.5440  -27.9290  -46.9861 H         1 UNK         0.0849 
     68 H68        15.1571  -27.2357  -45.5117 H         1 UNK         0.0849 
     69 H69        15.1617  -29.8600  -45.2206 H         1 UNK         0.0865 
     70 H70        16.5286  -30.8609  -45.6179 H         1 UNK         0.0865 
     71 H71        18.4840  -30.9511  -44.1976 H         1 UNK         0.1346 
     72 H72        18.4995  -28.7388  -40.5255 H         1 UNK         0.1412 
     73 H73        15.4337  -28.0287  -43.4330 H         1 UNK         0.1426 
     74 H74        16.6735  -27.2448  -39.9914 H         1 UNK         0.0716 
     75 H75        15.2349  -27.2782  -40.9789 H         1 UNK         0.0716 
     76 H76        18.7228  -25.9377  -40.4269 H         1 UNK         0.0695 
     77 H77        18.7012  -24.3206  -41.0769 H         1 UNK         0.0695 
     78 H78        19.1881  -26.8678  -42.7141 H         1 UNK         0.0983 
     79 H79        18.5269  -24.2663  -43.6602 H         1 UNK         0.3095 
     80 H80        18.7226  -23.6414  -45.7705 H         1 UNK         0.0454 
     81 H81        20.6528  -25.2441  -47.5363 H         1 UNK         0.0851 
     82 H82        21.0737  -23.8318  -46.5788 H         1 UNK         0.0851 
     83 H83        19.9507  -23.6733  -47.9197 H         1 UNK         0.0851 
     84 H84        18.3014  -25.9107  -47.6060 H         1 UNK         0.2976 
     85 H85        20.8053  -27.5126  -41.1685 H         1 UNK         0.3116 
     86 H86        23.1384  -25.9296  -40.6423 H         1 UNK         0.0646 
     87 H87        23.3388  -28.2845  -42.6268 H         1 UNK         0.0847 
     88 H88        24.7089  -27.4274  -41.9321 H         1 UNK         0.0847 
     89 H89        23.6285  -26.5956  -43.0317 H         1 UNK         0.0847 
     90 H90        24.8245  -27.5349  -39.6164 H         1 UNK         0.3040 
     91 H91        23.7101  -29.9699  -38.4756 H         1 UNK         0.1015 
     92 H92        24.7831  -27.6935  -36.6974 H         1 UNK         0.0786 
     93 H93        24.3991  -29.3207  -36.1495 H         1 UNK         0.0786 
     94 H94        23.1159  -28.2672  -36.7238 H         1 UNK         0.0786 
     95 H95        25.3597  -31.4001  -37.9860 H         1 UNK         0.3172 
     96 H96        27.2365  -32.5208  -38.2772 H         1 UNK         0.0595 
     97 H97        28.7918  -29.8851  -38.0755 H         1 UNK         0.0839 
     98 H98        29.4507  -31.5039  -37.9133 H         1 UNK         0.0839 
     99 H99        28.3279  -30.8966  -36.7078 H         1 UNK         0.0839 
    100 H100       25.7204  -32.0956  -40.4129 H         1 UNK         0.2998 
    101 H101       27.5357  -32.1716  -42.7069 H         1 UNK         0.0822 
    102 H102       26.2693  -30.3899  -43.9525 H         1 UNK         0.0787 
    103 H103       25.3454  -30.0154  -42.4924 H         1 UNK         0.0787 
    104 H104       27.0761  -29.7256  -42.5483 H         1 UNK         0.0787 
    105 H105       24.4583  -31.5133  -43.7823 H         1 UNK         0.3055 
    106 H106       23.7542  -34.2294  -44.3706 H         1 UNK         0.1106 
    107 H107       21.6259  -33.1906  -45.2024 H         1 UNK         0.0828 
    108 H108       22.0883  -31.6511  -44.4915 H         1 UNK         0.0828 
    109 H109       23.0370  -32.3413  -45.8081 H         1 UNK         0.0828 
    110 H110       22.9920  -32.0862  -41.7180 H         1 UNK         0.2931 
    111 H111       21.4108  -34.1993  -40.3293 H         1 UNK         0.0412 
    112 H112       22.3369  -35.0277  -38.3999 H         1 UNK         0.3472 
    113 H113       23.9027  -34.5259  -37.8195 H         1 UNK         0.3472 
    114 H114       21.5388  -31.1898  -39.7394 H         1 UNK         0.0970 
    115 H115       20.7432  -32.3697  -38.7420 H         1 UNK         0.0970 
    116 H116       20.4185  -31.0522  -42.7259 H         1 UNK         0.0612 
    117 H117       20.5484  -29.9401  -41.3888 H         1 UNK         0.0612 
@<TRIPOS>BOND
     1    1    2 1    
     2    1   62 1    
     3    1   63 1    
     4    1   64 1    
     5    2    3 2    
     6    2    4 am   BACKBONE|DICT|INTERRES
     7    4    5 1    
     8    4   65 1    
     9    5    6 1    
    10    5   25 1    
    11    5   66 1    
    12    6    7 1    
    13    6   67 1    
    14    6   68 1    
    15    7    8 1    
    16    8    9 1    
    17    8   69 1    
    18    8   70 1    
    19    9   10 ar   
    20    9   14 ar   
    21   10   11 ar   
    22   10   71 1    
    23   11   12 ar   
    24   11   61 1    
    25   12   13 ar   
    26   12   72 1    
    27   13   14 ar   
    28   13   15 1    
    29   14   73 1    
    30   15   16 1    
    31   15   74 1    
    32   15   75 1    
    33   16   17 1    
    34   17   18 1    
    35   17   76 1    
    36   17   77 1    
    37   18   19 1    
    38   18   27 1    
    39   18   78 1    
    40   19   20 am   BACKBONE|DICT|INTERRES
    41   19   79 1    
    42   20   21 2    
    43   20   22 1    
    44   22   23 1    
    45   22   24 1    
    46   22   80 1    
    47   23   81 1    
    48   23   82 1    
    49   23   83 1    
    50   24   25 am   BACKBONE|DICT|INTERRES
    51   24   84 1    
    52   25   26 2    
    53   27   28 2    
    54   27   29 am   BACKBONE|DICT|INTERRES
    55   29   30 1    
    56   29   85 1    
    57   30   31 1    
    58   30   32 1    
    59   30   86 1    
    60   31   87 1    
    61   31   88 1    
    62   31   89 1    
    63   32   33 2    
    64   32   34 am   BACKBONE|DICT|INTERRES
    65   34   35 1    
    66   34   90 1    
    67   35   36 1    
    68   35   37 1    
    69   35   91 1    
    70   36   92 1    
    71   36   93 1    
    72   36   94 1    
    73   37   38 2    
    74   37   39 am   BACKBONE|DICT|INTERRES
    75   39   40 1    
    76   39   95 1    
    77   40   41 1    
    78   40   42 1    
    79   40   96 1    
    80   41   97 1    
    81   41   98 1    
    82   41   99 1    
    83   42   43 2    
    84   42   44 am   BACKBONE|DICT|INTERRES
    85   44   45 1    
    86   44  100 1    
    87   45   46 1    
    88   45   47 1    
    89   45  101 1    
    90   46  102 1    
    91   46  103 1    
    92   46  104 1    
    93   47   48 2    
    94   47   49 am   BACKBONE|DICT|INTERRES
    95   49   50 1    
    96   49  105 1    
    97   50   51 1    
    98   50   52 1    
    99   50  106 1    
   100   51  107 1    
   101   51  108 1    
   102   51  109 1    
   103   52   53 2    
   104   52   54 am   BACKBONE|DICT|INTERRES
   105   54   55 1    
   106   54  110 1    
   107   55   56 1    
   108   55   59 1    
   109   55  111 1    
   110   56   57 am   BACKBONE|DICT|INTERRES
   111   56   58 2    
   112   57  112 1    
   113   57  113 1    
   114   59   60 1    
   115   59  114 1    
   116   59  115 1    
   117   60   61 1    
   118   61  116 1    
   119   61  117 1    
@<TRIPOS>SUBSTRUCTURE
     1 UNK         1 GROUP             0       ****    0 ROOT    
