@<TRIPOS>MOLECULE
3R8
117   119    1
SMALL
USER_CHARGES


@<TRIPOS>ATOM
      1 CA         19.4672  -25.0399  -39.8329 C.3       0 UNK        -0.2013 
      2 C          18.4830  -24.8004  -40.9668 C.2       0 UNK         0.4866 
      3 O          17.8794  -23.7298  -41.0369 O.2       0 UNK        -0.5176 
      4 N          18.3119  -25.7943  -41.8498 N.am      1 UNK        -0.4884 
      5 CA         17.3868  -25.7581  -42.9925 C.3       1 UNK         0.0853 
      6 C6         17.2641  -27.1408  -43.6811 C.3       10 UNK        -0.0849 
      7 S7         16.6564  -28.4428  -42.5601 S.3       10 UNK        -0.2776 
      8 C8         16.2309  -29.7578  -43.7463 C.3       10 UNK         0.0316 
      9 C9         17.4699  -30.4176  -44.3369 C.ar      10 UNK        -0.0863 
     10 C10        18.0656  -31.5016  -43.6844 C.ar      10 UNK        -0.1009 
     11 C11        19.1831  -32.1339  -44.2371 C.ar      10 UNK        -0.0712 
     12 C12        19.7203  -31.6594  -45.4374 C.ar      10 UNK        -0.0894 
     13 C13        19.1399  -30.5721  -46.0972 C.ar      10 UNK        -0.0745 
     14 C14        18.0054  -29.9645  -45.5475 C.ar      10 UNK        -0.0972 
     15 C15        19.7160  -30.0920  -47.4250 C.3       10 UNK         0.0209 
     16 S16        20.1059  -28.3121  -47.4404 S.3       10 UNK        -0.2568 
     17 C17        21.4977  -28.2146  -46.2633 C.3       10 UNK        -0.0983 
     18 CA         22.0526  -26.7710  -46.1512 C.3       3 UNK         0.0876 
     19 N          20.9998  -25.8326  -45.7580 N.am      3 UNK        -0.4424 
     20 C          21.0931  -24.4966  -45.7034 C.2       2 UNK         0.4918 
     21 O          22.1033  -23.8593  -46.0020 O.2       2 UNK        -0.4875 
     22 CA         19.8305  -23.7483  -45.2463 C.3       2 UNK         0.0481 
     23 CB         19.0188  -23.3557  -46.5012 C.3       2 UNK        -0.1831 
     24 N          19.0934  -24.5887  -44.2873 N.am      2 UNK        -0.4498 
     25 C          17.7792  -24.6947  -44.0395 C.2       1 UNK         0.5027 
     26 O          16.8957  -24.0330  -44.5848 O.2       1 UNK        -0.4969 
     27 C          23.2467  -26.7161  -45.1766 C.2       3 UNK         0.5005 
     28 O          23.0474  -26.5125  -43.9753 O.2       3 UNK        -0.5279 
     29 N          24.4606  -26.9369  -45.7040 N.am      4 UNK        -0.4463 
     30 CA         25.7437  -26.8304  -44.9915 C.3       4 UNK         0.0283 
     31 CB         26.8923  -27.0661  -45.9862 C.3       4 UNK        -0.1875 
     32 C          25.9015  -27.7535  -43.7677 C.2       4 UNK         0.4949 
     33 O          26.7154  -27.4584  -42.8928 O.2       4 UNK        -0.5039 
     34 N          25.1118  -28.8339  -43.7129 N.am      5 UNK        -0.4663 
     35 CA         25.0040  -29.7401  -42.5674 C.3       5 UNK         0.0242 
     36 CB         24.3211  -31.0356  -43.0298 C.3       5 UNK        -0.1982 
     37 C          24.2602  -29.1346  -41.3593 C.2       5 UNK         0.5017 
     38 O          24.3056  -29.7291  -40.2824 O.2       5 UNK        -0.5012 
     39 N          23.5772  -27.9916  -41.5464 N.am      6 UNK        -0.4439 
     40 CA         22.8771  -27.1982  -40.5259 C.3       6 UNK         0.0297 
     41 CB         23.8946  -26.5217  -39.5837 C.3       6 UNK        -0.2006 
     42 C          21.7917  -27.9827  -39.7618 C.2       6 UNK         0.4892 
     43 O          21.5896  -27.7506  -38.5694 O.2       6 UNK        -0.5089 
     44 N          21.1251  -28.9053  -40.4716 N.am      7 UNK        -0.4243 
     45 CA         20.0863  -29.8292  -39.9975 C.3       7 UNK         0.0196 
     46 CB         18.8489  -29.0644  -39.4821 C.3       7 UNK        -0.2007 
     47 C          20.5690  -30.8850  -38.9806 C.2       7 UNK         0.5020 
     48 O          19.7340  -31.6215  -38.4538 O.2       7 UNK        -0.5147 
     49 N          21.8875  -31.0077  -38.7488 N.am      8 UNK        -0.4734 
     50 CA         22.4815  -32.0402  -37.8822 C.3       8 UNK         0.0238 
     51 CB         23.9673  -31.7250  -37.6496 C.3       8 UNK        -0.1912 
     52 C          22.3117  -33.4650  -38.4439 C.2       8 UNK         0.5038 
     53 O          22.3285  -34.4333  -37.6836 O.2       8 UNK        -0.5046 
     54 N          22.1184  -33.5442  -39.7634 N.am      9 UNK        -0.4200 
     55 CA         21.6725  -34.7107  -40.5301 C.3       9 UNK         0.0839 
     56 C          20.2130  -35.1746  -40.2414 C.2       9 UNK         0.5513 
     57 N          19.3845  -34.4113  -39.5372 N.am      9 UNK        -0.7519 
     58 O          19.8275  -36.2613  -40.6642 O.2       9 UNK        -0.4960 
     59 C59        21.9105  -34.4803  -42.0473 C.3       10 UNK        -0.0876 
     60 S60        21.2979  -32.8607  -42.6429 S.3       10 UNK        -0.2414 
     61 C61        19.8052  -33.3403  -43.5526 C.3       10 UNK         0.0169 
     62 H62        19.1768  -24.4701  -38.9503 H         1 UNK         0.0903 
     63 H63        19.4990  -26.0908  -39.5503 H         1 UNK         0.0903 
     64 H64        20.4686  -24.7259  -40.1260 H         1 UNK         0.0903 
     65 H65        18.8031  -26.6668  -41.7197 H         1 UNK         0.3096 
     66 H66        16.4027  -25.4788  -42.6088 H         1 UNK         0.1121 
     67 H67        16.5802  -27.0795  -44.5305 H         1 UNK         0.0849 
     68 H68        18.2278  -27.4592  -44.0833 H         1 UNK         0.0849 
     69 H69        15.6261  -30.5076  -43.2340 H         1 UNK         0.0865 
     70 H70        15.5974  -29.3531  -44.5371 H         1 UNK         0.0865 
     71 H71        17.6520  -31.8600  -42.7514 H         1 UNK         0.1346 
     72 H72        20.5880  -32.1475  -45.8600 H         1 UNK         0.1412 
     73 H73        17.5425  -29.1346  -46.0638 H         1 UNK         0.1426 
     74 H74        18.9889  -30.2954  -48.2121 H         1 UNK         0.0716 
     75 H75        20.6157  -30.6508  -47.6874 H         1 UNK         0.0716 
     76 H76        22.2761  -28.9032  -46.5975 H         1 UNK         0.0695 
     77 H77        21.1576  -28.5765  -45.2905 H         1 UNK         0.0695 
     78 H78        22.4071  -26.4568  -47.1355 H         1 UNK         0.0983 
     79 H79        20.1094  -26.2542  -45.5455 H         1 UNK         0.3095 
     80 H80        20.1438  -22.8426  -44.7248 H         1 UNK         0.0454 
     81 H81        19.6541  -22.8735  -47.2457 H         1 UNK         0.0851 
     82 H82        18.2308  -22.6418  -46.2634 H         1 UNK         0.0851 
     83 H83        18.5613  -24.2231  -46.9784 H         1 UNK         0.0851 
     84 H84        19.6944  -25.1558  -43.7040 H         1 UNK         0.2976 
     85 H85        24.5239  -27.1230  -46.6953 H         1 UNK         0.3116 
     86 H86        25.8197  -25.8052  -44.6231 H         1 UNK         0.0646 
     87 H87        26.8525  -28.0663  -46.4194 H         1 UNK         0.0847 
     88 H88        26.8689  -26.3433  -46.8019 H         1 UNK         0.0847 
     89 H89        27.8617  -26.9631  -45.4961 H         1 UNK         0.0847 
     90 H90        24.4851  -29.0006  -44.4863 H         1 UNK         0.3040 
     91 H91        26.0123  -29.9863  -42.2269 H         1 UNK         0.1015 
     92 H92        24.2185  -31.7430  -42.2054 H         1 UNK         0.0786 
     93 H93        24.8986  -31.5331  -43.8090 H         1 UNK         0.0786 
     94 H94        23.3231  -30.8422  -43.4241 H         1 UNK         0.0786 
     95 H95        23.5625  -27.5868  -42.4810 H         1 UNK         0.3172 
     96 H96        22.3538  -26.4084  -41.0667 H         1 UNK         0.0595 
     97 H97        24.4226  -27.2522  -38.9697 H         1 UNK         0.0839 
     98 H98        23.4002  -25.8238  -38.9068 H         1 UNK         0.0839 
     99 H99        24.6380  -25.9551  -40.1444 H         1 UNK         0.0839 
    100 H100       21.3976  -29.0228  -41.4377 H         1 UNK         0.2998 
    101 H101       19.7736  -30.3935  -40.8781 H         1 UNK         0.0822 
    102 H102       18.0160  -29.7454  -39.3024 H         1 UNK         0.0787 
    103 H103       18.5058  -28.3272  -40.2055 H         1 UNK         0.0787 
    104 H104       19.0507  -28.5476  -38.5436 H         1 UNK         0.0787 
    105 H105       22.5328  -30.3803  -39.2173 H         1 UNK         0.3055 
    106 H106       21.9670  -32.0071  -36.9192 H         1 UNK         0.1106 
    107 H107       24.1031  -30.7241  -37.2396 H         1 UNK         0.0828 
    108 H108       24.4081  -32.4285  -36.9421 H         1 UNK         0.0828 
    109 H109       24.5433  -31.7901  -38.5734 H         1 UNK         0.0828 
    110 H110       22.1236  -32.6790  -40.2831 H         1 UNK         0.2931 
    111 H111       22.3077  -35.5445  -40.2256 H         1 UNK         0.0412 
    112 H112       19.6701  -33.5069  -39.1794 H         1 UNK         0.3472 
    113 H113       18.4487  -34.7407  -39.3619 H         1 UNK         0.3472 
    114 H114       22.9831  -34.5079  -42.2447 H         1 UNK         0.0970 
    115 H115       21.4906  -35.2910  -42.6460 H         1 UNK         0.0970 
    116 H116       20.0583  -34.0951  -44.2987 H         1 UNK         0.0612 
    117 H117       19.0953  -33.8036  -42.8656 H         1 UNK         0.0612 
@<TRIPOS>BOND
     1    1    2 1    
     2    1   62 1    
     3    1   63 1    
     4    1   64 1    
     5    2    3 2    
     6    2    4 am   BACKBONE|DICT|INTERRES
     7    4    5 1    
     8    4   65 1    
     9    5    6 1    
    10    5   25 1    
    11    5   66 1    
    12    6    7 1    
    13    6   67 1    
    14    6   68 1    
    15    7    8 1    
    16    8    9 1    
    17    8   69 1    
    18    8   70 1    
    19    9   10 ar   
    20    9   14 ar   
    21   10   11 ar   
    22   10   71 1    
    23   11   12 ar   
    24   11   61 1    
    25   12   13 ar   
    26   12   72 1    
    27   13   14 ar   
    28   13   15 1    
    29   14   73 1    
    30   15   16 1    
    31   15   74 1    
    32   15   75 1    
    33   16   17 1    
    34   17   18 1    
    35   17   76 1    
    36   17   77 1    
    37   18   19 1    
    38   18   27 1    
    39   18   78 1    
    40   19   20 am   BACKBONE|DICT|INTERRES
    41   19   79 1    
    42   20   21 2    
    43   20   22 1    
    44   22   23 1    
    45   22   24 1    
    46   22   80 1    
    47   23   81 1    
    48   23   82 1    
    49   23   83 1    
    50   24   25 am   BACKBONE|DICT|INTERRES
    51   24   84 1    
    52   25   26 2    
    53   27   28 2    
    54   27   29 am   BACKBONE|DICT|INTERRES
    55   29   30 1    
    56   29   85 1    
    57   30   31 1    
    58   30   32 1    
    59   30   86 1    
    60   31   87 1    
    61   31   88 1    
    62   31   89 1    
    63   32   33 2    
    64   32   34 am   BACKBONE|DICT|INTERRES
    65   34   35 1    
    66   34   90 1    
    67   35   36 1    
    68   35   37 1    
    69   35   91 1    
    70   36   92 1    
    71   36   93 1    
    72   36   94 1    
    73   37   38 2    
    74   37   39 am   BACKBONE|DICT|INTERRES
    75   39   40 1    
    76   39   95 1    
    77   40   41 1    
    78   40   42 1    
    79   40   96 1    
    80   41   97 1    
    81   41   98 1    
    82   41   99 1    
    83   42   43 2    
    84   42   44 am   BACKBONE|DICT|INTERRES
    85   44   45 1    
    86   44  100 1    
    87   45   46 1    
    88   45   47 1    
    89   45  101 1    
    90   46  102 1    
    91   46  103 1    
    92   46  104 1    
    93   47   48 2    
    94   47   49 am   BACKBONE|DICT|INTERRES
    95   49   50 1    
    96   49  105 1    
    97   50   51 1    
    98   50   52 1    
    99   50  106 1    
   100   51  107 1    
   101   51  108 1    
   102   51  109 1    
   103   52   53 2    
   104   52   54 am   BACKBONE|DICT|INTERRES
   105   54   55 1    
   106   54  110 1    
   107   55   56 1    
   108   55   59 1    
   109   55  111 1    
   110   56   57 am   BACKBONE|DICT|INTERRES
   111   56   58 2    
   112   57  112 1    
   113   57  113 1    
   114   59   60 1    
   115   59  114 1    
   116   59  115 1    
   117   60   61 1    
   118   61  116 1    
   119   61  117 1    
@<TRIPOS>SUBSTRUCTURE
     1 UNK         1 GROUP             0       ****    0 ROOT    
