@<TRIPOS>MOLECULE
3R8
117   119    1
SMALL
USER_CHARGES


@<TRIPOS>ATOM
      1 CA         18.6555  -25.9392  -49.1375 C.3       0 UNK        -0.2013 
      2 C          18.7276  -26.4067  -47.6921 C.2       0 UNK         0.4866 
      3 O          19.7845  -26.8506  -47.2419 O.2       0 UNK        -0.5176 
      4 N          17.6179  -26.2980  -46.9507 N.am      1 UNK        -0.4884 
      5 CA         17.4728  -26.7237  -45.5508 C.3       1 UNK         0.0853 
      6 C6         15.9976  -27.0531  -45.2056 C.3       10 UNK        -0.0849 
      7 S7         15.4234  -28.5199  -46.1255 S.3       10 UNK        -0.2776 
      8 C8         15.2727  -29.7640  -44.7981 C.3       10 UNK         0.0316 
      9 C9         16.5532  -29.9567  -43.9892 C.ar      10 UNK        -0.0863 
     10 C10        17.7478  -30.3225  -44.6179 C.ar      10 UNK        -0.1009 
     11 C11        18.9072  -30.5415  -43.8677 C.ar      10 UNK        -0.0712 
     12 C12        18.8655  -30.3974  -42.4781 C.ar      10 UNK        -0.0894 
     13 C13        17.6788  -30.0355  -41.8328 C.ar      10 UNK        -0.0745 
     14 C14        16.5292  -29.8105  -42.5977 C.ar      10 UNK        -0.0972 
     15 C15        17.6032  -29.9481  -40.3096 C.3       10 UNK         0.0209 
     16 S16        19.0112  -29.0858  -39.5318 S.3       10 UNK        -0.2568 
     17 C17        18.8143  -27.3887  -40.1692 C.3       10 UNK        -0.0983 
     18 CA         20.1199  -26.8796  -40.8286 C.3       3 UNK         0.0876 
     19 N          19.8410  -25.9490  -41.9225 N.am      3 UNK        -0.4424 
     20 C          20.7571  -25.4635  -42.7674 C.2       2 UNK         0.4918 
     21 O          21.9556  -25.7362  -42.6982 O.2       2 UNK        -0.4875 
     22 CA         20.2284  -24.5805  -43.9111 C.3       2 UNK         0.0481 
     23 CB         21.3619  -23.9474  -44.7386 C.3       2 UNK        -0.1831 
     24 N          19.3793  -25.3746  -44.7982 N.am      2 UNK        -0.4498 
     25 C          18.1058  -25.7157  -44.5666 C.2       1 UNK         0.5027 
     26 O          17.4599  -25.2850  -43.6083 O.2       1 UNK        -0.4969 
     27 C          21.0860  -26.2660  -39.7919 C.2       3 UNK         0.5005 
     28 O          21.0009  -25.0678  -39.5125 O.2       3 UNK        -0.5279 
     29 N          21.9940  -27.1008  -39.2716 N.am      4 UNK        -0.4463 
     30 CA         23.1064  -26.8110  -38.3559 C.3       4 UNK         0.0283 
     31 CB         22.7019  -25.9387  -37.1506 C.3       4 UNK        -0.1875 
     32 C          24.3541  -26.2685  -39.0721 C.2       4 UNK         0.4949 
     33 O          25.4614  -26.5545  -38.6162 O.2       4 UNK        -0.5039 
     34 N          24.1820  -25.5624  -40.2001 N.am      5 UNK        -0.4663 
     35 CA         25.2531  -25.3350  -41.1758 C.3       5 UNK         0.0242 
     36 CB         24.9356  -24.1172  -42.0597 C.3       5 UNK        -0.1982 
     37 C          25.4575  -26.6152  -42.0020 C.2       5 UNK         0.5017 
     38 O          26.5747  -27.1287  -42.0679 O.2       5 UNK        -0.5012 
     39 N          24.3515  -27.1524  -42.5351 N.am      6 UNK        -0.4439 
     40 CA         24.2282  -28.5370  -42.9757 C.3       6 UNK         0.0297 
     41 CB         23.0953  -28.6499  -44.0092 C.3       6 UNK        -0.2006 
     42 C          23.9371  -29.3981  -41.7382 C.2       6 UNK         0.4892 
     43 O          22.9036  -29.2061  -41.0888 O.2       6 UNK        -0.5089 
     44 N          24.8619  -30.3078  -41.4140 N.am      7 UNK        -0.4243 
     45 CA         24.8056  -31.1821  -40.2417 C.3       7 UNK         0.0196 
     46 CB         26.2293  -31.6718  -39.9178 C.3       7 UNK        -0.2007 
     47 C          23.8188  -32.3433  -40.4538 C.2       7 UNK         0.5020 
     48 O          24.2412  -33.4752  -40.6912 O.2       7 UNK        -0.5147 
     49 N          22.5179  -32.0262  -40.4173 N.am      8 UNK        -0.4734 
     50 CA         21.3431  -32.9086  -40.5347 C.3       8 UNK         0.0238 
     51 CB         21.3366  -33.9723  -39.4182 C.3       8 UNK        -0.1912 
     52 C          21.1214  -33.5594  -41.9166 C.2       8 UNK         0.5038 
     53 O          19.9939  -33.9743  -42.1846 O.2       8 UNK        -0.5046 
     54 N          22.1694  -33.6192  -42.7510 N.am      9 UNK        -0.4200 
     55 CA         22.2296  -34.1779  -44.1125 C.3       9 UNK         0.0839 
     56 C          21.6383  -35.6152  -44.2550 C.2       9 UNK         0.5513 
     57 N          21.0201  -35.9595  -45.3773 N.am      9 UNK        -0.7519 
     58 O          21.8050  -36.4538  -43.3714 O.2       9 UNK        -0.4960 
     59 C59        21.8410  -33.1488  -45.2196 C.3       10 UNK        -0.0876 
     60 S60        20.0887  -32.6348  -45.2296 S.3       10 UNK        -0.2414 
     61 C61        20.2027  -30.9506  -44.5500 C.3       10 UNK         0.0169 
     62 H62        19.3720  -25.1361  -49.3081 H         1 UNK         0.0903 
     63 H63        18.8990  -26.7618  -49.8093 H         1 UNK         0.0903 
     64 H64        17.6635  -25.5707  -49.3984 H         1 UNK         0.0903 
     65 H65        16.7841  -25.9108  -47.3699 H         1 UNK         0.3096 
     66 H66        18.0480  -27.6425  -45.4182 H         1 UNK         0.1121 
     67 H67        15.3474  -26.2084  -45.4397 H         1 UNK         0.0849 
     68 H68        15.8719  -27.2396  -44.1373 H         1 UNK         0.0849 
     69 H69        14.4436  -29.4782  -44.1488 H         1 UNK         0.0865 
     70 H70        14.9926  -30.7195  -45.2436 H         1 UNK         0.0865 
     71 H71        17.7735  -30.4483  -45.6920 H         1 UNK         0.1346 
     72 H72        19.7570  -30.5790  -41.8956 H         1 UNK         0.1412 
     73 H73        15.6041  -29.5454  -42.1037 H         1 UNK         0.1426 
     74 H74        17.5571  -30.9622  -39.9106 H         1 UNK         0.0716 
     75 H75        16.6822  -29.4536  -39.9965 H         1 UNK         0.0716 
     76 H76        18.4815  -26.7329  -39.3620 H         1 UNK         0.0695 
     77 H77        18.0012  -27.3904  -40.8971 H         1 UNK         0.0695 
     78 H78        20.6241  -27.7268  -41.3004 H         1 UNK         0.0983 
     79 H79        18.8752  -25.6798  -42.0645 H         1 UNK         0.3095 
     80 H80        19.6403  -23.7733  -43.4699 H         1 UNK         0.0454 
     81 H81        21.9879  -24.7037  -45.2141 H         1 UNK         0.0851 
     82 H82        22.0097  -23.3365  -44.1087 H         1 UNK         0.0851 
     83 H83        20.9672  -23.2994  -45.5211 H         1 UNK         0.0851 
     84 H84        19.8286  -25.8036  -45.6030 H         1 UNK         0.2976 
     85 H85        22.0235  -28.0383  -39.6638 H         1 UNK         0.3116 
     86 H86        23.3908  -27.7863  -37.9572 H         1 UNK         0.0646 
     87 H87        22.5084  -24.9049  -37.4370 H         1 UNK         0.0847 
     88 H88        23.5003  -25.9174  -36.4079 H         1 UNK         0.0847 
     89 H89        21.8105  -26.3268  -36.6579 H         1 UNK         0.0847 
     90 H90        23.2369  -25.3581  -40.4974 H         1 UNK         0.3040 
     91 H91        26.1840  -25.1257  -40.6433 H         1 UNK         0.1015 
     92 H92        24.0307  -24.2534  -42.6497 H         1 UNK         0.0786 
     93 H93        25.7503  -23.9264  -42.7593 H         1 UNK         0.0786 
     94 H94        24.8085  -23.2167  -41.4586 H         1 UNK         0.0786 
     95 H95        23.4761  -26.6354  -42.4605 H         1 UNK         0.3172 
     96 H96        25.1599  -28.8573  -43.4469 H         1 UNK         0.0595 
     97 H97        23.0402  -29.6616  -44.4112 H         1 UNK         0.0839 
     98 H98        23.2575  -27.9760  -44.8505 H         1 UNK         0.0839 
     99 H99        22.1216  -28.4127  -43.5779 H         1 UNK         0.0839 
    100 H100       25.6754  -30.4032  -42.0052 H         1 UNK         0.2998 
    101 H101       24.4539  -30.6017  -39.3855 H         1 UNK         0.0822 
    102 H102       26.2273  -32.3256  -39.0445 H         1 UNK         0.0787 
    103 H103       26.6645  -32.2341  -40.7451 H         1 UNK         0.0787 
    104 H104       26.8936  -30.8367  -39.6939 H         1 UNK         0.0787 
    105 H105       22.3077  -31.0358  -40.3369 H         1 UNK         0.3055 
    106 H106       20.4775  -32.2654  -40.3677 H         1 UNK         0.1106 
    107 H107       20.4081  -34.5448  -39.4323 H         1 UNK         0.0828 
    108 H108       22.1545  -34.6848  -39.5283 H         1 UNK         0.0828 
    109 H109       21.4184  -33.5146  -38.4324 H         1 UNK         0.0828 
    110 H110       23.0612  -33.3520  -42.3532 H         1 UNK         0.2931 
    111 H111       23.2970  -34.3497  -44.2562 H         1 UNK         0.0412 
    112 H112       20.8545  -35.2796  -46.1027 H         1 UNK         0.3472 
    113 H113       20.6640  -36.8976  -45.4752 H         1 UNK         0.3472 
    114 H114       22.0813  -33.5501  -46.2053 H         1 UNK         0.0970 
    115 H115       22.4726  -32.2645  -45.1255 H         1 UNK         0.0970 
    116 H116       21.0260  -30.9045  -43.8358 H         1 UNK         0.0612 
    117 H117       20.4402  -30.2483  -45.3503 H         1 UNK         0.0612 
@<TRIPOS>BOND
     1    1    2 1    
     2    1   62 1    
     3    1   63 1    
     4    1   64 1    
     5    2    3 2    
     6    2    4 am   BACKBONE|DICT|INTERRES
     7    4    5 1    
     8    4   65 1    
     9    5    6 1    
    10    5   25 1    
    11    5   66 1    
    12    6    7 1    
    13    6   67 1    
    14    6   68 1    
    15    7    8 1    
    16    8    9 1    
    17    8   69 1    
    18    8   70 1    
    19    9   10 ar   
    20    9   14 ar   
    21   10   11 ar   
    22   10   71 1    
    23   11   12 ar   
    24   11   61 1    
    25   12   13 ar   
    26   12   72 1    
    27   13   14 ar   
    28   13   15 1    
    29   14   73 1    
    30   15   16 1    
    31   15   74 1    
    32   15   75 1    
    33   16   17 1    
    34   17   18 1    
    35   17   76 1    
    36   17   77 1    
    37   18   19 1    
    38   18   27 1    
    39   18   78 1    
    40   19   20 am   BACKBONE|DICT|INTERRES
    41   19   79 1    
    42   20   21 2    
    43   20   22 1    
    44   22   23 1    
    45   22   24 1    
    46   22   80 1    
    47   23   81 1    
    48   23   82 1    
    49   23   83 1    
    50   24   25 am   BACKBONE|DICT|INTERRES
    51   24   84 1    
    52   25   26 2    
    53   27   28 2    
    54   27   29 am   BACKBONE|DICT|INTERRES
    55   29   30 1    
    56   29   85 1    
    57   30   31 1    
    58   30   32 1    
    59   30   86 1    
    60   31   87 1    
    61   31   88 1    
    62   31   89 1    
    63   32   33 2    
    64   32   34 am   BACKBONE|DICT|INTERRES
    65   34   35 1    
    66   34   90 1    
    67   35   36 1    
    68   35   37 1    
    69   35   91 1    
    70   36   92 1    
    71   36   93 1    
    72   36   94 1    
    73   37   38 2    
    74   37   39 am   BACKBONE|DICT|INTERRES
    75   39   40 1    
    76   39   95 1    
    77   40   41 1    
    78   40   42 1    
    79   40   96 1    
    80   41   97 1    
    81   41   98 1    
    82   41   99 1    
    83   42   43 2    
    84   42   44 am   BACKBONE|DICT|INTERRES
    85   44   45 1    
    86   44  100 1    
    87   45   46 1    
    88   45   47 1    
    89   45  101 1    
    90   46  102 1    
    91   46  103 1    
    92   46  104 1    
    93   47   48 2    
    94   47   49 am   BACKBONE|DICT|INTERRES
    95   49   50 1    
    96   49  105 1    
    97   50   51 1    
    98   50   52 1    
    99   50  106 1    
   100   51  107 1    
   101   51  108 1    
   102   51  109 1    
   103   52   53 2    
   104   52   54 am   BACKBONE|DICT|INTERRES
   105   54   55 1    
   106   54  110 1    
   107   55   56 1    
   108   55   59 1    
   109   55  111 1    
   110   56   57 am   BACKBONE|DICT|INTERRES
   111   56   58 2    
   112   57  112 1    
   113   57  113 1    
   114   59   60 1    
   115   59  114 1    
   116   59  115 1    
   117   60   61 1    
   118   61  116 1    
   119   61  117 1    
@<TRIPOS>SUBSTRUCTURE
     1 UNK         1 GROUP             0       ****    0 ROOT    
