@<TRIPOS>MOLECULE
3R8
117   119    1
SMALL
USER_CHARGES


@<TRIPOS>ATOM
      1 CA         13.4169  -23.6562  -44.9564 C.3       0 UNK        -0.2013 
      2 C          14.7165  -24.1542  -45.5703 C.2       0 UNK         0.4866 
      3 O          15.6591  -23.3777  -45.7244 O.2       0 UNK        -0.5176 
      4 N          14.7768  -25.4456  -45.9194 N.am      1 UNK        -0.4884 
      5 CA         15.9503  -26.1037  -46.5114 C.3       1 UNK         0.0853 
      6 C6         15.5533  -27.3688  -47.3170 C.3       10 UNK        -0.0849 
      7 S7         14.6027  -28.6034  -46.3580 S.3       10 UNK        -0.2776 
      8 C8         15.6086  -30.1123  -46.5561 C.3       10 UNK         0.0316 
      9 C9         16.8083  -30.1525  -45.6173 C.ar      10 UNK        -0.0863 
     10 C10        16.6106  -30.2822  -44.2397 C.ar      10 UNK        -0.1009 
     11 C11        17.7000  -30.3659  -43.3682 C.ar      10 UNK        -0.0712 
     12 C12        18.9981  -30.3289  -43.8845 C.ar      10 UNK        -0.0894 
     13 C13        19.2122  -30.2068  -45.2598 C.ar      10 UNK        -0.0745 
     14 C14        18.1130  -30.1118  -46.1212 C.ar      10 UNK        -0.0972 
     15 C15        20.6274  -30.2225  -45.8216 C.3       10 UNK         0.0209 
     16 S16        21.3195  -28.5492  -46.0127 S.3       10 UNK        -0.2568 
     17 C17        22.0085  -28.2053  -44.3580 C.3       10 UNK        -0.0983 
     18 CA         21.3384  -26.9920  -43.6696 C.3       3 UNK         0.0876 
     19 N          19.9049  -27.1929  -43.4565 N.am      3 UNK        -0.4424 
     20 C          19.0327  -26.2428  -43.0972 C.2       2 UNK         0.4918 
     21 O          19.3322  -25.0713  -42.8591 O.2       2 UNK        -0.4875 
     22 CA         17.5606  -26.6847  -43.0189 C.3       2 UNK         0.0481 
     23 CB         16.8822  -26.1364  -41.7520 C.3       2 UNK        -0.1831 
     24 N          16.7481  -26.3295  -44.1882 N.am      2 UNK        -0.4498 
     25 C          17.0679  -26.4124  -45.4917 C.2       1 UNK         0.5027 
     26 O          18.1751  -26.7285  -45.9243 O.2       1 UNK        -0.4969 
     27 C          22.0677  -26.6178  -42.3649 C.2       3 UNK         0.5005 
     28 O          22.7424  -25.5865  -42.3300 O.2       3 UNK        -0.5279 
     29 N          21.8903  -27.4449  -41.3206 N.am      4 UNK        -0.4463 
     30 CA         22.4760  -27.3156  -39.9796 C.3       4 UNK         0.0283 
     31 CB         21.9613  -26.0366  -39.2811 C.3       4 UNK        -0.1875 
     32 C          24.0164  -27.4247  -39.9825 C.2       4 UNK         0.4949 
     33 O          24.6044  -27.8638  -40.9738 O.2       4 UNK        -0.5039 
     34 N          24.6445  -27.0739  -38.8507 N.am      5 UNK        -0.4663 
     35 CA         26.0939  -27.0966  -38.6087 C.3       5 UNK         0.0242 
     36 CB         26.7757  -25.9418  -39.3800 C.3       5 UNK        -0.1982 
     37 C          26.7087  -28.4883  -38.8742 C.2       5 UNK         0.5017 
     38 O          26.1862  -29.4791  -38.3606 O.2       5 UNK        -0.5012 
     39 N          27.7869  -28.5447  -39.6686 N.am      6 UNK        -0.4439 
     40 CA         28.4774  -29.7758  -40.0629 C.3       6 UNK         0.0297 
     41 CB         29.8523  -29.4179  -40.6506 C.3       6 UNK        -0.2006 
     42 C          27.6813  -30.6464  -41.0534 C.2       6 UNK         0.4892 
     43 O          27.8961  -31.8588  -41.0827 O.2       6 UNK        -0.5089 
     44 N          26.7904  -30.0300  -41.8450 N.am      7 UNK        -0.4243 
     45 CA         25.8938  -30.7285  -42.7722 C.3       7 UNK         0.0196 
     46 CB         25.3869  -29.7444  -43.8369 C.3       7 UNK        -0.2007 
     47 C          24.7193  -31.4031  -42.0432 C.2       7 UNK         0.5020 
     48 O          24.2689  -32.4630  -42.4786 O.2       7 UNK        -0.5147 
     49 N          24.2770  -30.7892  -40.9366 N.am      8 UNK        -0.4734 
     50 CA         23.2374  -31.2440  -40.0116 C.3       8 UNK         0.0238 
     51 CB         23.7071  -32.5041  -39.2479 C.3       8 UNK        -0.1912 
     52 C          21.8709  -31.3821  -40.7087 C.2       8 UNK         0.5038 
     53 O          21.3565  -30.3811  -41.2134 O.2       8 UNK        -0.5046 
     54 N          21.3048  -32.5925  -40.7022 N.am      9 UNK        -0.4200 
     55 CA         20.0138  -32.9545  -41.2891 C.3       9 UNK         0.0839 
     56 C          19.9672  -34.4783  -41.5764 C.2       9 UNK         0.5513 
     57 N          19.0595  -34.9215  -42.4337 N.am      9 UNK        -0.7519 
     58 O          20.7356  -35.2629  -41.0215 O.2       9 UNK        -0.4960 
     59 C59        18.8311  -32.4671  -40.4064 C.3       10 UNK        -0.0876 
     60 S60        17.2892  -32.1998  -41.3438 S.3       10 UNK        -0.2414 
     61 C61        17.4645  -30.4669  -41.8696 C.3       10 UNK         0.0169 
     62 H62        12.9981  -22.8548  -45.5645 H         1 UNK         0.0903 
     63 H63        12.6717  -24.4479  -44.8798 H         1 UNK         0.0903 
     64 H64        13.5999  -23.2647  -43.9561 H         1 UNK         0.0903 
     65 H65        13.9760  -26.0468  -45.7765 H         1 UNK         0.3096 
     66 H66        16.3941  -25.4027  -47.2227 H         1 UNK         0.1121 
     67 H67        14.9378  -27.0721  -48.1676 H         1 UNK         0.0849 
     68 H68        16.4380  -27.8361  -47.7541 H         1 UNK         0.0849 
     69 H69        14.9772  -30.9773  -46.3478 H         1 UNK         0.0865 
     70 H70        15.9183  -30.2140  -47.5974 H         1 UNK         0.0865 
     71 H71        15.6040  -30.3166  -43.8454 H         1 UNK         0.1346 
     72 H72        19.8440  -30.3990  -43.2172 H         1 UNK         0.1412 
     73 H73        18.2767  -30.0200  -47.1863 H         1 UNK         0.1426 
     74 H74        20.6209  -30.7039  -46.8006 H         1 UNK         0.0716 
     75 H75        21.2838  -30.8311  -45.1974 H         1 UNK         0.0716 
     76 H76        21.9482  -29.0963  -43.7305 H         1 UNK         0.0695 
     77 H77        23.0707  -28.0048  -44.5015 H         1 UNK         0.0695 
     78 H78        21.4385  -26.1366  -44.3420 H         1 UNK         0.0983 
     79 H79        19.5430  -28.0961  -43.7286 H         1 UNK         0.3095 
     80 H80        17.5410  -27.7687  -42.9450 H         1 UNK         0.0454 
     81 H81        15.8891  -26.5642  -41.6143 H         1 UNK         0.0851 
     82 H82        17.4633  -26.3797  -40.8613 H         1 UNK         0.0851 
     83 H83        16.7796  -25.0511  -41.7872 H         1 UNK         0.0851 
     84 H84        15.8031  -26.0380  -43.9883 H         1 UNK         0.2976 
     85 H85        21.3907  -28.3142  -41.4789 H         1 UNK         0.3116 
     86 H86        22.1079  -28.1723  -39.4143 H         1 UNK         0.0646 
     87 H87        22.1794  -26.0467  -38.2131 H         1 UNK         0.0847 
     88 H88        20.8800  -25.9404  -39.3805 H         1 UNK         0.0847 
     89 H89        22.4134  -25.1361  -39.6987 H         1 UNK         0.0847 
     90 H90        24.0795  -26.7784  -38.0669 H         1 UNK         0.3040 
     91 H91        26.2339  -26.9098  -37.5427 H         1 UNK         0.1015 
     92 H92        26.3186  -24.9846  -39.1281 H         1 UNK         0.0786 
     93 H93        26.6957  -26.0647  -40.4611 H         1 UNK         0.0786 
     94 H94        27.8332  -25.8591  -39.1255 H         1 UNK         0.0786 
     95 H95        28.1430  -27.6796  -40.0492 H         1 UNK         0.3172 
     96 H96        28.6398  -30.3728  -39.1628 H         1 UNK         0.0595 
     97 H97        30.4048  -30.3177  -40.9252 H         1 UNK         0.0839 
     98 H98        30.4637  -28.8733  -39.9308 H         1 UNK         0.0839 
     99 H99        29.7624  -28.8055  -41.5489 H         1 UNK         0.0839 
    100 H100       26.6435  -29.0360  -41.7312 H         1 UNK         0.2998 
    101 H101       26.4589  -31.5131  -43.2804 H         1 UNK         0.0822 
    102 H102       26.2077  -29.3573  -44.4406 H         1 UNK         0.0787 
    103 H103       24.6828  -30.2274  -44.5160 H         1 UNK         0.0787 
    104 H104       24.8769  -28.8953  -43.3835 H         1 UNK         0.0787 
    105 H105       24.6648  -29.8723  -40.7394 H         1 UNK         0.3055 
    106 H106       23.1160  -30.4498  -39.2742 H         1 UNK         0.1106 
    107 H107       23.8736  -33.3547  -39.9098 H         1 UNK         0.0828 
    108 H108       24.6440  -32.3104  -38.7247 H         1 UNK         0.0828 
    109 H109       22.9800  -32.8043  -38.4920 H         1 UNK         0.0828 
    110 H110       21.8146  -33.3762  -40.3161 H         1 UNK         0.2931 
    111 H111       19.9694  -32.4610  -42.2599 H         1 UNK         0.0412 
    112 H112       18.4057  -34.2840  -42.8626 H         1 UNK         0.3472 
    113 H113       19.0068  -35.9085  -42.6323 H         1 UNK         0.3472 
    114 H114       18.6319  -33.1776  -39.6019 H         1 UNK         0.0970 
    115 H115       19.0825  -31.5352  -39.8987 H         1 UNK         0.0970 
    116 H116       16.5539  -29.9285  -41.6023 H         1 UNK         0.0612 
    117 H117       18.2733  -29.9722  -41.3301 H         1 UNK         0.0612 
@<TRIPOS>BOND
     1    1    2 1    
     2    1   62 1    
     3    1   63 1    
     4    1   64 1    
     5    2    3 2    
     6    2    4 am   BACKBONE|DICT|INTERRES
     7    4    5 1    
     8    4   65 1    
     9    5    6 1    
    10    5   25 1    
    11    5   66 1    
    12    6    7 1    
    13    6   67 1    
    14    6   68 1    
    15    7    8 1    
    16    8    9 1    
    17    8   69 1    
    18    8   70 1    
    19    9   10 ar   
    20    9   14 ar   
    21   10   11 ar   
    22   10   71 1    
    23   11   12 ar   
    24   11   61 1    
    25   12   13 ar   
    26   12   72 1    
    27   13   14 ar   
    28   13   15 1    
    29   14   73 1    
    30   15   16 1    
    31   15   74 1    
    32   15   75 1    
    33   16   17 1    
    34   17   18 1    
    35   17   76 1    
    36   17   77 1    
    37   18   19 1    
    38   18   27 1    
    39   18   78 1    
    40   19   20 am   BACKBONE|DICT|INTERRES
    41   19   79 1    
    42   20   21 2    
    43   20   22 1    
    44   22   23 1    
    45   22   24 1    
    46   22   80 1    
    47   23   81 1    
    48   23   82 1    
    49   23   83 1    
    50   24   25 am   BACKBONE|DICT|INTERRES
    51   24   84 1    
    52   25   26 2    
    53   27   28 2    
    54   27   29 am   BACKBONE|DICT|INTERRES
    55   29   30 1    
    56   29   85 1    
    57   30   31 1    
    58   30   32 1    
    59   30   86 1    
    60   31   87 1    
    61   31   88 1    
    62   31   89 1    
    63   32   33 2    
    64   32   34 am   BACKBONE|DICT|INTERRES
    65   34   35 1    
    66   34   90 1    
    67   35   36 1    
    68   35   37 1    
    69   35   91 1    
    70   36   92 1    
    71   36   93 1    
    72   36   94 1    
    73   37   38 2    
    74   37   39 am   BACKBONE|DICT|INTERRES
    75   39   40 1    
    76   39   95 1    
    77   40   41 1    
    78   40   42 1    
    79   40   96 1    
    80   41   97 1    
    81   41   98 1    
    82   41   99 1    
    83   42   43 2    
    84   42   44 am   BACKBONE|DICT|INTERRES
    85   44   45 1    
    86   44  100 1    
    87   45   46 1    
    88   45   47 1    
    89   45  101 1    
    90   46  102 1    
    91   46  103 1    
    92   46  104 1    
    93   47   48 2    
    94   47   49 am   BACKBONE|DICT|INTERRES
    95   49   50 1    
    96   49  105 1    
    97   50   51 1    
    98   50   52 1    
    99   50  106 1    
   100   51  107 1    
   101   51  108 1    
   102   51  109 1    
   103   52   53 2    
   104   52   54 am   BACKBONE|DICT|INTERRES
   105   54   55 1    
   106   54  110 1    
   107   55   56 1    
   108   55   59 1    
   109   55  111 1    
   110   56   57 am   BACKBONE|DICT|INTERRES
   111   56   58 2    
   112   57  112 1    
   113   57  113 1    
   114   59   60 1    
   115   59  114 1    
   116   59  115 1    
   117   60   61 1    
   118   61  116 1    
   119   61  117 1    
@<TRIPOS>SUBSTRUCTURE
     1 UNK         1 GROUP             0       ****    0 ROOT    
