@<TRIPOS>MOLECULE
3R8
117   119    1
SMALL
USER_CHARGES


@<TRIPOS>ATOM
      1 CA         14.2564  -22.6181  -46.2880 C.3       0 UNK        -0.2013 
      2 C          15.6802  -23.1161  -46.0897 C.2       0 UNK         0.4866 
      3 O          16.6202  -22.3251  -46.1682 O.2       0 UNK        -0.5176 
      4 N          15.8456  -24.4224  -45.8396 N.am      1 UNK        -0.4884 
      5 CA         17.1373  -25.0737  -45.5893 C.3       1 UNK         0.0853 
      6 C6         16.9980  -26.6170  -45.6567 C.3       10 UNK        -0.0849 
      7 S7         18.5926  -27.5051  -45.6390 S.3       10 UNK        -0.2776 
      8 C8         18.0309  -29.2310  -45.4810 C.3       10 UNK         0.0316 
      9 C9         18.7548  -29.9320  -44.3429 C.ar      10 UNK        -0.0863 
     10 C10        19.9495  -30.6163  -44.5857 C.ar      10 UNK        -0.1009 
     11 C11        20.6230  -31.2571  -43.5421 C.ar      10 UNK        -0.0712 
     12 C12        20.1102  -31.1830  -42.2444 C.ar      10 UNK        -0.0894 
     13 C13        18.9224  -30.4943  -41.9854 C.ar      10 UNK        -0.0745 
     14 C14        18.2349  -29.8912  -43.0451 C.ar      10 UNK        -0.0972 
     15 C15        18.3925  -30.4126  -40.5582 C.3       10 UNK         0.0209 
     16 S16        18.0574  -28.7044  -40.0119 S.3       10 UNK        -0.2568 
     17 C17        19.6913  -27.8957  -40.1678 C.3       10 UNK        -0.0983 
     18 CA         19.8520  -27.1100  -41.5006 C.3       3 UNK         0.0876 
     19 N          18.7288  -26.2144  -41.8018 N.am      3 UNK        -0.4424 
     20 C          18.3860  -25.0879  -41.1600 C.2       2 UNK         0.4918 
     21 O          18.9242  -24.7010  -40.1219 O.2       2 UNK        -0.4875 
     22 CA         17.2697  -24.2306  -41.8023 C.3       2 UNK         0.0481 
     23 CB         17.5869  -22.7236  -41.7076 C.3       2 UNK        -0.1831 
     24 N          16.9327  -24.5893  -43.1915 N.am      2 UNK        -0.4498 
     25 C          17.7577  -24.6150  -44.2531 C.2       1 UNK         0.5027 
     26 O          18.9566  -24.3359  -44.1982 O.2       1 UNK        -0.4969 
     27 C          21.2192  -26.3966  -41.6361 C.2       3 UNK         0.5005 
     28 O          22.1821  -26.7745  -40.9647 O.2       3 UNK        -0.5279 
     29 N          21.2936  -25.3875  -42.5238 N.am      4 UNK        -0.4463 
     30 CA         22.4554  -24.5152  -42.7462 C.3       4 UNK         0.0283 
     31 CB         22.0592  -23.3855  -43.7100 C.3       4 UNK        -0.1875 
     32 C          23.7215  -25.2320  -43.2502 C.2       4 UNK         0.4949 
     33 O          24.8127  -24.6724  -43.1423 O.2       4 UNK        -0.5039 
     34 N          23.5645  -26.4599  -43.7624 N.am      5 UNK        -0.4663 
     35 CA         24.6520  -27.3741  -44.1170 C.3       5 UNK         0.0242 
     36 CB         24.0572  -28.5732  -44.8734 C.3       5 UNK        -0.1982 
     37 C          25.4719  -27.8619  -42.9054 C.2       5 UNK         0.5017 
     38 O          26.5988  -28.3161  -43.1007 O.2       5 UNK        -0.5012 
     39 N          24.8927  -27.7886  -41.6944 N.am      6 UNK        -0.4439 
     40 CA         25.4551  -28.1630  -40.3867 C.3       6 UNK         0.0297 
     41 CB         26.7291  -27.3511  -40.0732 C.3       6 UNK        -0.2006 
     42 C          25.6724  -29.6751  -40.1660 C.2       6 UNK         0.4892 
     43 O          26.0527  -30.0675  -39.0613 O.2       6 UNK        -0.5089 
     44 N          25.4064  -30.4991  -41.1861 N.am      7 UNK        -0.4243 
     45 CA         25.3697  -31.9583  -41.1072 C.3       7 UNK         0.0196 
     46 CB         25.5896  -32.5306  -42.5188 C.3       7 UNK        -0.2007 
     47 C          24.0315  -32.4379  -40.5201 C.2       7 UNK         0.5020 
     48 O          23.0758  -31.6630  -40.4398 O.2       7 UNK        -0.5147 
     49 N          23.9733  -33.7198  -40.1415 N.am      8 UNK        -0.4734 
     50 CA         22.7575  -34.3515  -39.6210 C.3       8 UNK         0.0238 
     51 CB         23.1334  -35.6153  -38.8296 C.3       8 UNK        -0.1912 
     52 C          21.7345  -34.6877  -40.7202 C.2       8 UNK         0.5038 
     53 O          20.5352  -34.5496  -40.4794 O.2       8 UNK        -0.5046 
     54 N          22.2241  -35.1413  -41.8858 N.am      9 UNK        -0.4200 
     55 CA         21.4271  -35.6618  -43.0159 C.3       9 UNK         0.0839 
     56 C          20.5780  -36.9296  -42.6765 C.2       9 UNK         0.5513 
     57 N          20.9296  -37.7019  -41.6548 N.am      9 UNK        -0.7519 
     58 O          19.6102  -37.2458  -43.3639 O.2       9 UNK        -0.4960 
     59 C59        20.6158  -34.5506  -43.7485 C.3       10 UNK        -0.0876 
     60 S60        21.6704  -33.5082  -44.8132 S.3       10 UNK        -0.2414 
     61 C61        21.9153  -32.0147  -43.8070 C.3       10 UNK         0.0169 
     62 H62        13.5258  -23.4222  -46.2011 H         1 UNK         0.0903 
     63 H63        14.0170  -21.8607  -45.5420 H         1 UNK         0.0903 
     64 H64        14.1501  -22.1693  -47.2753 H         1 UNK         0.0903 
     65 H65        15.0324  -25.0217  -45.8044 H         1 UNK         0.3096 
     66 H66        17.8203  -24.7603  -46.3828 H         1 UNK         0.1121 
     67 H67        16.3745  -26.9833  -44.8385 H         1 UNK         0.0849 
     68 H68        16.4827  -26.8980  -46.5769 H         1 UNK         0.0849 
     69 H69        18.2118  -29.7518  -46.4226 H         1 UNK         0.0865 
     70 H70        16.9534  -29.2761  -45.3160 H         1 UNK         0.0865 
     71 H71        20.3549  -30.6567  -45.5877 H         1 UNK         0.1346 
     72 H72        20.6385  -31.6650  -41.4329 H         1 UNK         0.1412 
     73 H73        17.3118  -29.3620  -42.8511 H         1 UNK         0.1426 
     74 H74        19.0910  -30.8713  -39.8563 H         1 UNK         0.0716 
     75 H75        17.4691  -30.9893  -40.4939 H         1 UNK         0.0716 
     76 H76        20.4715  -28.6534  -40.0725 H         1 UNK         0.0695 
     77 H77        19.8148  -27.2244  -39.3164 H         1 UNK         0.0695 
     78 H78        19.8607  -27.8426  -42.3067 H         1 UNK         0.0983 
     79 H79        18.2117  -26.4423  -42.6375 H         1 UNK         0.3095 
     80 H80        16.3702  -24.4185  -41.2146 H         1 UNK         0.0454 
     81 H81        16.7899  -22.1217  -42.1441 H         1 UNK         0.0851 
     82 H82        18.5154  -22.4730  -42.2217 H         1 UNK         0.0851 
     83 H83        17.6958  -22.4078  -40.6694 H         1 UNK         0.0851 
     84 H84        15.9667  -24.8414  -43.3494 H         1 UNK         0.2976 
     85 H85        20.4565  -25.1442  -43.0460 H         1 UNK         0.3116 
     86 H86        22.7088  -24.0661  -41.7838 H         1 UNK         0.0646 
     87 H87        22.8899  -22.6974  -43.8729 H         1 UNK         0.0847 
     88 H88        21.2285  -22.7998  -43.3157 H         1 UNK         0.0847 
     89 H89        21.7608  -23.7744  -44.6844 H         1 UNK         0.0847 
     90 H90        22.6245  -26.8216  -43.8302 H         1 UNK         0.3040 
     91 H91        25.3387  -26.8458  -44.7822 H         1 UNK         0.1015 
     92 H92        23.3249  -29.1054  -44.2657 H         1 UNK         0.0786 
     93 H93        24.8331  -29.2872  -45.1541 H         1 UNK         0.0786 
     94 H94        23.5632  -28.2573  -45.7925 H         1 UNK         0.0786 
     95 H95        23.9471  -27.4158  -41.6462 H         1 UNK         0.3172 
     96 H96        24.6971  -27.8684  -39.6592 H         1 UNK         0.0595 
     97 H97        27.5610  -27.6318  -40.7195 H         1 UNK         0.0839 
     98 H98        27.0525  -27.5143  -39.0444 H         1 UNK         0.0839 
     99 H99        26.5570  -26.2812  -40.1914 H         1 UNK         0.0839 
    100 H100       25.0806  -30.0845  -42.0455 H         1 UNK         0.2998 
    101 H101       26.1764  -32.3022  -40.4560 H         1 UNK         0.0822 
    102 H102       24.8160  -32.2070  -43.2150 H         1 UNK         0.0787 
    103 H103       26.5515  -32.2160  -42.9243 H         1 UNK         0.0787 
    104 H104       25.5871  -33.6211  -42.5117 H         1 UNK         0.0787 
    105 H105       24.7980  -34.2981  -40.2232 H         1 UNK         0.3055 
    106 H106       22.2733  -33.6564  -38.9303 H         1 UNK         0.1106 
    107 H107       22.2442  -36.0997  -38.4231 H         1 UNK         0.0828 
    108 H108       23.6493  -36.3484  -39.4507 H         1 UNK         0.0828 
    109 H109       23.7814  -35.3755  -37.9863 H         1 UNK         0.0828 
    110 H110       23.2248  -35.2188  -41.9860 H         1 UNK         0.2931 
    111 H111       22.1614  -36.0420  -43.7270 H         1 UNK         0.0412 
    112 H112       21.7331  -37.4759  -41.0917 H         1 UNK         0.3472 
    113 H113       20.3845  -38.5249  -41.4497 H         1 UNK         0.3472 
    114 H114       19.8701  -34.9824  -44.4175 H         1 UNK         0.0970 
    115 H115       20.0493  -33.9430  -43.0430 H         1 UNK         0.0970 
    116 H116       22.6186  -31.3600  -44.3212 H         1 UNK         0.0612 
    117 H117       22.3899  -32.3077  -42.8735 H         1 UNK         0.0612 
@<TRIPOS>BOND
     1    1    2 1    
     2    1   62 1    
     3    1   63 1    
     4    1   64 1    
     5    2    3 2    
     6    2    4 am   BACKBONE|DICT|INTERRES
     7    4    5 1    
     8    4   65 1    
     9    5    6 1    
    10    5   25 1    
    11    5   66 1    
    12    6    7 1    
    13    6   67 1    
    14    6   68 1    
    15    7    8 1    
    16    8    9 1    
    17    8   69 1    
    18    8   70 1    
    19    9   10 ar   
    20    9   14 ar   
    21   10   11 ar   
    22   10   71 1    
    23   11   12 ar   
    24   11   61 1    
    25   12   13 ar   
    26   12   72 1    
    27   13   14 ar   
    28   13   15 1    
    29   14   73 1    
    30   15   16 1    
    31   15   74 1    
    32   15   75 1    
    33   16   17 1    
    34   17   18 1    
    35   17   76 1    
    36   17   77 1    
    37   18   19 1    
    38   18   27 1    
    39   18   78 1    
    40   19   20 am   BACKBONE|DICT|INTERRES
    41   19   79 1    
    42   20   21 2    
    43   20   22 1    
    44   22   23 1    
    45   22   24 1    
    46   22   80 1    
    47   23   81 1    
    48   23   82 1    
    49   23   83 1    
    50   24   25 am   BACKBONE|DICT|INTERRES
    51   24   84 1    
    52   25   26 2    
    53   27   28 2    
    54   27   29 am   BACKBONE|DICT|INTERRES
    55   29   30 1    
    56   29   85 1    
    57   30   31 1    
    58   30   32 1    
    59   30   86 1    
    60   31   87 1    
    61   31   88 1    
    62   31   89 1    
    63   32   33 2    
    64   32   34 am   BACKBONE|DICT|INTERRES
    65   34   35 1    
    66   34   90 1    
    67   35   36 1    
    68   35   37 1    
    69   35   91 1    
    70   36   92 1    
    71   36   93 1    
    72   36   94 1    
    73   37   38 2    
    74   37   39 am   BACKBONE|DICT|INTERRES
    75   39   40 1    
    76   39   95 1    
    77   40   41 1    
    78   40   42 1    
    79   40   96 1    
    80   41   97 1    
    81   41   98 1    
    82   41   99 1    
    83   42   43 2    
    84   42   44 am   BACKBONE|DICT|INTERRES
    85   44   45 1    
    86   44  100 1    
    87   45   46 1    
    88   45   47 1    
    89   45  101 1    
    90   46  102 1    
    91   46  103 1    
    92   46  104 1    
    93   47   48 2    
    94   47   49 am   BACKBONE|DICT|INTERRES
    95   49   50 1    
    96   49  105 1    
    97   50   51 1    
    98   50   52 1    
    99   50  106 1    
   100   51  107 1    
   101   51  108 1    
   102   51  109 1    
   103   52   53 2    
   104   52   54 am   BACKBONE|DICT|INTERRES
   105   54   55 1    
   106   54  110 1    
   107   55   56 1    
   108   55   59 1    
   109   55  111 1    
   110   56   57 am   BACKBONE|DICT|INTERRES
   111   56   58 2    
   112   57  112 1    
   113   57  113 1    
   114   59   60 1    
   115   59  114 1    
   116   59  115 1    
   117   60   61 1    
   118   61  116 1    
   119   61  117 1    
@<TRIPOS>SUBSTRUCTURE
     1 UNK         1 GROUP             0       ****    0 ROOT    
