@<TRIPOS>MOLECULE
3R8
117   119    1
SMALL
USER_CHARGES


@<TRIPOS>ATOM
      1 CA         12.3239  -28.7270  -47.8277 C.3       0 UNK        -0.2013 
      2 C          13.5265  -29.3587  -47.1425 C.2       0 UNK         0.4866 
      3 O          13.4886  -30.5427  -46.8060 O.2       0 UNK        -0.5176 
      4 N          14.5927  -28.5816  -46.9374 N.am      1 UNK        -0.4884 
      5 CA         15.8397  -29.0027  -46.3014 C.3       1 UNK         0.0853 
      6 C6         15.7365  -29.0747  -44.7491 C.3       10 UNK        -0.0849 
      7 S7         15.2298  -27.5075  -43.9529 S.3       10 UNK        -0.2776 
      8 C8         15.2196  -27.9740  -42.1932 C.3       10 UNK         0.0316 
      9 C9         16.6215  -28.1040  -41.6097 C.ar      10 UNK        -0.0863 
     10 C10        17.1230  -29.3592  -41.2513 C.ar      10 UNK        -0.1009 
     11 C11        18.3881  -29.4820  -40.6609 C.ar      10 UNK        -0.0712 
     12 C12        19.1428  -28.3271  -40.4289 C.ar      10 UNK        -0.0894 
     13 C13        18.6553  -27.0639  -40.7786 C.ar      10 UNK        -0.0745 
     14 C14        17.3940  -26.9618  -41.3740 C.ar      10 UNK        -0.0972 
     15 C15        19.4456  -25.8026  -40.4386 C.3       10 UNK         0.0209 
     16 S16        21.1824  -25.8379  -40.9976 S.3       10 UNK        -0.2568 
     17 C17        21.0166  -25.5909  -42.7971 C.3       10 UNK        -0.0983 
     18 CA         21.6131  -26.7737  -43.6029 C.3       3 UNK         0.0876 
     19 N          21.0049  -26.9025  -44.9238 N.am      3 UNK        -0.4424 
     20 C          19.8765  -27.5767  -45.1514 C.2       2 UNK         0.4918 
     21 O          19.2129  -28.0901  -44.2502 O.2       2 UNK        -0.4875 
     22 CA         19.4167  -27.7140  -46.6147 C.3       2 UNK         0.0481 
     23 CB         20.4918  -28.3798  -47.4917 C.3       2 UNK        -0.1831 
     24 N          18.2077  -28.5370  -46.6351 N.am      2 UNK        -0.4498 
     25 C          16.9660  -28.0631  -46.7650 C.2       1 UNK         0.5027 
     26 O          16.6929  -26.9366  -47.1936 O.2       1 UNK        -0.4969 
     27 C          23.1370  -26.6754  -43.7822 C.2       3 UNK         0.5005 
     28 O          23.6047  -26.2759  -44.8535 O.2       3 UNK        -0.5279 
     29 N          23.8773  -27.0425  -42.7344 N.am      4 UNK        -0.4463 
     30 CA         25.3342  -27.0464  -42.6567 C.3       4 UNK         0.0283 
     31 CB         25.8706  -28.3718  -43.2308 C.3       4 UNK        -0.1875 
     32 C          25.7474  -26.8735  -41.1894 C.2       4 UNK         0.4949 
     33 O          24.8940  -26.9198  -40.3005 O.2       4 UNK        -0.5039 
     34 N          27.0570  -26.7259  -40.9462 N.am      5 UNK        -0.4663 
     35 CA         27.6490  -26.6117  -39.6043 C.3       5 UNK         0.0242 
     36 CB         29.1462  -26.2892  -39.7356 C.3       5 UNK        -0.1982 
     37 C          27.4416  -27.8582  -38.7205 C.2       5 UNK         0.5017 
     38 O          27.3701  -27.7285  -37.4986 O.2       5 UNK        -0.5012 
     39 N          27.3137  -29.0294  -39.3583 N.am      6 UNK        -0.4439 
     40 CA         26.9765  -30.3133  -38.7360 C.3       6 UNK         0.0297 
     41 CB         27.8058  -31.4188  -39.4158 C.3       6 UNK        -0.2006 
     42 C          25.4649  -30.6203  -38.8082 C.2       6 UNK         0.4892 
     43 O          25.0822  -31.7842  -38.6750 O.2       6 UNK        -0.5089 
     44 N          24.6358  -29.5930  -39.0532 N.am      7 UNK        -0.4243 
     45 CA         23.1948  -29.6176  -39.3275 C.3       7 UNK         0.0196 
     46 CB         22.3803  -30.2688  -38.1909 C.3       7 UNK        -0.2007 
     47 C          22.8898  -30.2277  -40.7024 C.2       7 UNK         0.5020 
     48 O          22.4244  -29.5073  -41.5828 O.2       7 UNK        -0.5147 
     49 N          23.1776  -31.5261  -40.8668 N.am      8 UNK        -0.4734 
     50 CA         23.0919  -32.3656  -42.0749 C.3       8 UNK         0.0238 
     51 CB         24.0687  -31.8619  -43.1555 C.3       8 UNK        -0.1912 
     52 C          21.6849  -32.5647  -42.6748 C.2       8 UNK         0.5038 
     53 O          21.3698  -33.6778  -43.0953 O.2       8 UNK        -0.5046 
     54 N          20.8898  -31.4927  -42.7300 N.am      9 UNK        -0.4200 
     55 CA         19.5437  -31.3746  -43.3148 C.3       9 UNK         0.0839 
     56 C          19.5070  -31.4094  -44.8728 C.2       9 UNK         0.5513 
     57 N          20.6176  -31.6075  -45.5717 N.am      9 UNK        -0.7519 
     58 O          18.4511  -31.2092  -45.4687 O.2       9 UNK        -0.4960 
     59 C59        18.4901  -32.3471  -42.7065 C.3       10 UNK        -0.0876 
     60 S60        18.1930  -32.3324  -40.8958 S.3       10 UNK        -0.2414 
     61 C61        18.9678  -30.8238  -40.2095 C.3       10 UNK         0.0169 
     62 H62        12.1004  -29.2536  -48.7552 H         1 UNK         0.0903 
     63 H63        11.4491  -28.7884  -47.1810 H         1 UNK         0.0903 
     64 H64        12.4956  -27.6774  -48.0662 H         1 UNK         0.0903 
     65 H65        14.6080  -27.6184  -47.2518 H         1 UNK         0.3096 
     66 H66        16.0879  -29.9993  -46.6754 H         1 UNK         0.1121 
     67 H67        15.0199  -29.8479  -44.4687 H         1 UNK         0.0849 
     68 H68        16.6894  -29.3890  -44.3187 H         1 UNK         0.0849 
     69 H69        14.6748  -27.2116  -41.6345 H         1 UNK         0.0865 
     70 H70        14.6546  -28.8989  -42.0669 H         1 UNK         0.0865 
     71 H71        16.5132  -30.2349  -41.4191 H         1 UNK         0.1346 
     72 H72        20.1124  -28.4075  -39.9570 H         1 UNK         0.1412 
     73 H73        16.9978  -25.9903  -41.6362 H         1 UNK         0.1426 
     74 H74        18.9609  -24.9145  -40.8471 H         1 UNK         0.0716 
     75 H75        19.4382  -25.6798  -39.3549 H         1 UNK         0.0716 
     76 H76        19.9553  -25.4818  -43.0263 H         1 UNK         0.0695 
     77 H77        21.4775  -24.6418  -43.0771 H         1 UNK         0.0695 
     78 H78        21.4166  -27.7019  -43.0622 H         1 UNK         0.0983 
     79 H79        21.5630  -26.5345  -45.6836 H         1 UNK         0.3095 
     80 H80        19.2142  -26.7142  -47.0032 H         1 UNK         0.0454 
     81 H81        20.8222  -29.3315  -47.0777 H         1 UNK         0.0851 
     82 H82        20.1195  -28.5658  -48.4991 H         1 UNK         0.0851 
     83 H83        21.3728  -27.7451  -47.5899 H         1 UNK         0.0851 
     84 H84        18.3154  -29.4620  -46.2250 H         1 UNK         0.2976 
     85 H85        23.4131  -27.3142  -41.8734 H         1 UNK         0.3116 
     86 H86        25.7324  -26.2040  -43.2259 H         1 UNK         0.0646 
     87 H87        26.9607  -28.3913  -43.2409 H         1 UNK         0.0847 
     88 H88        25.5404  -28.5224  -44.2587 H         1 UNK         0.0847 
     89 H89        25.5316  -29.2265  -42.6444 H         1 UNK         0.0847 
     90 H90        27.6968  -26.6883  -41.7277 H         1 UNK         0.3040 
     91 H91        27.1614  -25.7756  -39.0976 H         1 UNK         0.1015 
     92 H92        29.3060  -25.3567  -40.2772 H         1 UNK         0.0786 
     93 H93        29.6864  -27.0797  -40.2583 H         1 UNK         0.0786 
     94 H94        29.6081  -26.1736  -38.7538 H         1 UNK         0.0786 
     95 H95        27.3879  -29.0228  -40.3654 H         1 UNK         0.3172 
     96 H96        27.2476  -30.2926  -37.6786 H         1 UNK         0.0595 
     97 H97        27.6516  -32.3827  -38.9288 H         1 UNK         0.0839 
     98 H98        28.8732  -31.2032  -39.3643 H         1 UNK         0.0839 
     99 H99        27.5367  -31.5381  -40.4661 H         1 UNK         0.0839 
    100 H100       25.0551  -28.6791  -39.1852 H         1 UNK         0.2998 
    101 H101       22.8896  -28.5707  -39.3766 H         1 UNK         0.0822 
    102 H102       22.6067  -29.8052  -37.2308 H         1 UNK         0.0787 
    103 H103       21.3109  -30.1457  -38.3618 H         1 UNK         0.0787 
    104 H104       22.5701  -31.3379  -38.0964 H         1 UNK         0.0787 
    105 H105       23.5953  -31.9813  -40.0600 H         1 UNK         0.3055 
    106 H106       23.4313  -33.3555  -41.7649 H         1 UNK         0.1106 
    107 H107       24.0815  -32.5341  -44.0145 H         1 UNK         0.0828 
    108 H108       23.7960  -30.8718  -43.5226 H         1 UNK         0.0828 
    109 H109       25.0881  -31.8091  -42.7732 H         1 UNK         0.0828 
    110 H110       21.2886  -30.6232  -42.3809 H         1 UNK         0.2931 
    111 H111       19.2282  -30.3647  -43.0653 H         1 UNK         0.0412 
    112 H112       20.5701  -31.6365  -46.5774 H         1 UNK         0.3472 
    113 H113       21.4896  -31.7832  -45.1010 H         1 UNK         0.3472 
    114 H114       18.7321  -33.3735  -42.9863 H         1 UNK         0.0970 
    115 H115       17.5176  -32.1523  -43.1624 H         1 UNK         0.0970 
    116 H116       20.0392  -30.8537  -40.3914 H         1 UNK         0.0612 
    117 H117       18.8577  -30.8742  -39.1258 H         1 UNK         0.0612 
@<TRIPOS>BOND
     1    1    2 1    
     2    1   62 1    
     3    1   63 1    
     4    1   64 1    
     5    2    3 2    
     6    2    4 am   BACKBONE|DICT|INTERRES
     7    4    5 1    
     8    4   65 1    
     9    5    6 1    
    10    5   25 1    
    11    5   66 1    
    12    6    7 1    
    13    6   67 1    
    14    6   68 1    
    15    7    8 1    
    16    8    9 1    
    17    8   69 1    
    18    8   70 1    
    19    9   10 ar   
    20    9   14 ar   
    21   10   11 ar   
    22   10   71 1    
    23   11   12 ar   
    24   11   61 1    
    25   12   13 ar   
    26   12   72 1    
    27   13   14 ar   
    28   13   15 1    
    29   14   73 1    
    30   15   16 1    
    31   15   74 1    
    32   15   75 1    
    33   16   17 1    
    34   17   18 1    
    35   17   76 1    
    36   17   77 1    
    37   18   19 1    
    38   18   27 1    
    39   18   78 1    
    40   19   20 am   BACKBONE|DICT|INTERRES
    41   19   79 1    
    42   20   21 2    
    43   20   22 1    
    44   22   23 1    
    45   22   24 1    
    46   22   80 1    
    47   23   81 1    
    48   23   82 1    
    49   23   83 1    
    50   24   25 am   BACKBONE|DICT|INTERRES
    51   24   84 1    
    52   25   26 2    
    53   27   28 2    
    54   27   29 am   BACKBONE|DICT|INTERRES
    55   29   30 1    
    56   29   85 1    
    57   30   31 1    
    58   30   32 1    
    59   30   86 1    
    60   31   87 1    
    61   31   88 1    
    62   31   89 1    
    63   32   33 2    
    64   32   34 am   BACKBONE|DICT|INTERRES
    65   34   35 1    
    66   34   90 1    
    67   35   36 1    
    68   35   37 1    
    69   35   91 1    
    70   36   92 1    
    71   36   93 1    
    72   36   94 1    
    73   37   38 2    
    74   37   39 am   BACKBONE|DICT|INTERRES
    75   39   40 1    
    76   39   95 1    
    77   40   41 1    
    78   40   42 1    
    79   40   96 1    
    80   41   97 1    
    81   41   98 1    
    82   41   99 1    
    83   42   43 2    
    84   42   44 am   BACKBONE|DICT|INTERRES
    85   44   45 1    
    86   44  100 1    
    87   45   46 1    
    88   45   47 1    
    89   45  101 1    
    90   46  102 1    
    91   46  103 1    
    92   46  104 1    
    93   47   48 2    
    94   47   49 am   BACKBONE|DICT|INTERRES
    95   49   50 1    
    96   49  105 1    
    97   50   51 1    
    98   50   52 1    
    99   50  106 1    
   100   51  107 1    
   101   51  108 1    
   102   51  109 1    
   103   52   53 2    
   104   52   54 am   BACKBONE|DICT|INTERRES
   105   54   55 1    
   106   54  110 1    
   107   55   56 1    
   108   55   59 1    
   109   55  111 1    
   110   56   57 am   BACKBONE|DICT|INTERRES
   111   56   58 2    
   112   57  112 1    
   113   57  113 1    
   114   59   60 1    
   115   59  114 1    
   116   59  115 1    
   117   60   61 1    
   118   61  116 1    
   119   61  117 1    
@<TRIPOS>SUBSTRUCTURE
     1 UNK         1 GROUP             0       ****    0 ROOT    
