@<TRIPOS>MOLECULE
3R8
117   119    1
SMALL
USER_CHARGES


@<TRIPOS>ATOM
      1 CA         17.1691  -23.0417  -40.8271 C.3       0 UNK        -0.2013 
      2 C          16.9030  -23.4552  -42.2671 C.2       0 UNK         0.4866 
      3 O          16.6625  -22.5962  -43.1165 O.2       0 UNK        -0.5176 
      4 N          16.9372  -24.7646  -42.5453 N.am      1 UNK        -0.4884 
      5 CA         16.7999  -25.3375  -43.8893 C.3       1 UNK         0.0853 
      6 C6         16.3772  -26.8272  -43.8129 C.3       10 UNK        -0.0849 
      7 S7         15.4369  -27.3469  -45.2861 S.3       10 UNK        -0.2776 
      8 C8         14.8967  -29.0139  -44.7908 C.3       10 UNK         0.0316 
      9 C9         16.0662  -29.9807  -44.6705 C.ar      10 UNK        -0.0863 
     10 C10        16.4225  -30.5143  -43.4262 C.ar      10 UNK        -0.1009 
     11 C11        17.4845  -31.4190  -43.3200 C.ar      10 UNK        -0.0712 
     12 C12        18.1776  -31.7961  -44.4726 C.ar      10 UNK        -0.0894 
     13 C13        17.8762  -31.2178  -45.7069 C.ar      10 UNK        -0.0745 
     14 C14        16.8005  -30.3329  -45.8074 C.ar      10 UNK        -0.0972 
     15 C15        18.7668  -31.4974  -46.9079 C.3       10 UNK         0.0209 
     16 S16        19.8419  -30.0752  -47.3119 S.3       10 UNK        -0.2568 
     17 C17        20.6334  -29.6626  -45.7101 C.3       10 UNK        -0.0983 
     18 CA         21.1768  -28.2121  -45.6560 C.3       3 UNK         0.0876 
     19 N          20.1422  -27.2409  -46.0256 N.am      3 UNK        -0.4424 
     20 C          20.3577  -26.0999  -46.6907 C.2       2 UNK         0.4918 
     21 O          21.4676  -25.7238  -47.0678 O.2       2 UNK        -0.4875 
     22 CA         19.1248  -25.2203  -46.9837 C.3       2 UNK         0.0481 
     23 CB         18.6044  -25.4964  -48.4033 C.3       2 UNK        -0.1831 
     24 N          18.0167  -25.3684  -46.0294 N.am      2 UNK        -0.4498 
     25 C          18.0964  -25.1477  -44.7100 C.2       1 UNK         0.5027 
     26 O          19.1496  -24.8487  -44.1444 O.2       1 UNK        -0.4969 
     27 C          21.8051  -27.9076  -44.2724 C.2       3 UNK         0.5005 
     28 O          22.7406  -28.6064  -43.8763 O.2       3 UNK        -0.5279 
     29 N          21.2973  -26.8975  -43.5449 N.am      4 UNK        -0.4463 
     30 CA         21.8322  -26.4538  -42.2521 C.3       4 UNK         0.0283 
     31 CB         20.7842  -25.5626  -41.5588 C.3       4 UNK        -0.1875 
     32 C          23.1668  -25.6928  -42.4258 C.2       4 UNK         0.4949 
     33 O          23.4340  -25.1900  -43.5174 O.2       4 UNK        -0.5039 
     34 N          24.0094  -25.5652  -41.3913 N.am      5 UNK        -0.4663 
     35 CA         23.8571  -26.0365  -40.0103 C.3       5 UNK         0.0242 
     36 CB         23.9765  -24.8285  -39.0617 C.3       5 UNK        -0.1982 
     37 C          24.8823  -27.1387  -39.6966 C.2       5 UNK         0.5017 
     38 O          25.4887  -27.1318  -38.6235 O.2       5 UNK        -0.5012 
     39 N          25.0609  -28.0695  -40.6434 N.am      6 UNK        -0.4439 
     40 CA         25.8624  -29.2828  -40.4762 C.3       6 UNK         0.0297 
     41 CB         26.0361  -29.9526  -41.8483 C.3       6 UNK        -0.2006 
     42 C          25.2164  -30.2552  -39.4723 C.2       6 UNK         0.4892 
     43 O          23.9919  -30.2488  -39.3131 O.2       6 UNK        -0.5089 
     44 N          26.0502  -31.0860  -38.8308 N.am      7 UNK        -0.4243 
     45 CA         25.6418  -32.1099  -37.8638 C.3       7 UNK         0.0196 
     46 CB         26.8898  -32.8056  -37.2955 C.3       7 UNK        -0.2007 
     47 C          24.6853  -33.1295  -38.5022 C.2       7 UNK         0.5020 
     48 O          25.0644  -33.7845  -39.4750 O.2       7 UNK        -0.5147 
     49 N          23.4492  -33.1892  -37.9848 N.am      8 UNK        -0.4734 
     50 CA         22.3110  -33.9628  -38.5080 C.3       8 UNK         0.0238 
     51 CB         22.5428  -35.4748  -38.2975 C.3       8 UNK        -0.1912 
     52 C          21.9511  -33.6151  -39.9706 C.2       8 UNK         0.5038 
     53 O          21.4683  -34.4817  -40.7018 O.2       8 UNK        -0.5046 
     54 N          22.2162  -32.3619  -40.3687 N.am      9 UNK        -0.4200 
     55 CA         22.1272  -31.8387  -41.7408 C.3       9 UNK         0.0839 
     56 C          23.1988  -32.4204  -42.7157 C.2       9 UNK         0.5513 
     57 N          24.2545  -33.0746  -42.2436 N.am      9 UNK        -0.7519 
     58 O          23.0868  -32.2610  -43.9282 O.2       9 UNK        -0.4960 
     59 C59        20.6975  -31.8961  -42.3466 C.3       10 UNK        -0.0876 
     60 S60        19.3924  -31.1407  -41.3148 S.3       10 UNK        -0.2414 
     61 C61        17.9016  -31.9734  -41.9630 C.3       10 UNK         0.0169 
     62 H62        16.3130  -22.4986  -40.4277 H         1 UNK         0.0903 
     63 H63        17.3566  -23.9008  -40.1833 H         1 UNK         0.0903 
     64 H64        18.0398  -22.3880  -40.7807 H         1 UNK         0.0903 
     65 H65        17.1661  -25.4185  -41.8108 H         1 UNK         0.3096 
     66 H66        16.0111  -24.7756  -44.3959 H         1 UNK         0.1121 
     67 H67        17.2355  -27.4864  -43.6643 H         1 UNK         0.0849 
     68 H68        15.7257  -26.9873  -42.9518 H         1 UNK         0.0849 
     69 H69        14.3390  -28.9519  -43.8549 H         1 UNK         0.0865 
     70 H70        14.1974  -29.3943  -45.5367 H         1 UNK         0.0865 
     71 H71        15.8764  -30.2235  -42.5390 H         1 UNK         0.1346 
     72 H72        18.9957  -32.4977  -44.4036 H         1 UNK         0.1412 
     73 H73        16.5579  -29.8895  -46.7639 H         1 UNK         0.1426 
     74 H74        19.3928  -32.3732  -46.7303 H         1 UNK         0.0716 
     75 H75        18.1476  -31.7335  -47.7744 H         1 UNK         0.0716 
     76 H76        21.4343  -30.3831  -45.5328 H         1 UNK         0.0695 
     77 H77        19.9153  -29.7922  -44.9021 H         1 UNK         0.0695 
     78 H78        21.9919  -28.1449  -46.3800 H         1 UNK         0.0983 
     79 H79        19.1937  -27.4861  -45.7840 H         1 UNK         0.3095 
     80 H80        19.4531  -24.1799  -46.9383 H         1 UNK         0.0454 
     81 H81        18.2306  -26.5163  -48.5044 H         1 UNK         0.0851 
     82 H82        17.7987  -24.8135  -48.6728 H         1 UNK         0.0851 
     83 H83        19.3964  -25.3659  -49.1423 H         1 UNK         0.0851 
     84 H84        17.1258  -25.6566  -46.4117 H         1 UNK         0.2976 
     85 H85        20.5750  -26.3123  -43.9510 H         1 UNK         0.3116 
     86 H86        21.9957  -27.3497  -41.6509 H         1 UNK         0.0646 
     87 H87        19.8093  -26.0486  -41.5203 H         1 UNK         0.0847 
     88 H88        20.6641  -24.6098  -42.0752 H         1 UNK         0.0847 
     89 H89        21.0645  -25.3273  -40.5329 H         1 UNK         0.0847 
     90 H90        24.8812  -25.0870  -41.5721 H         1 UNK         0.3040 
     91 H91        22.8825  -26.4884  -39.8333 H         1 UNK         0.1015 
     92 H92        23.8228  -25.1261  -38.0234 H         1 UNK         0.0786 
     93 H93        23.2283  -24.0696  -39.2914 H         1 UNK         0.0786 
     94 H94        24.9593  -24.3597  -39.1259 H         1 UNK         0.0786 
     95 H95        24.5183  -28.0019  -41.4923 H         1 UNK         0.3172 
     96 H96        26.8463  -28.9967  -40.0984 H         1 UNK         0.0595 
     97 H97        25.0748  -30.1734  -42.3130 H         1 UNK         0.0839 
     98 H98        26.5820  -30.8935  -41.7654 H         1 UNK         0.0839 
     99 H99        26.5957  -29.3142  -42.5321 H         1 UNK         0.0839 
    100 H100       27.0356  -31.0431  -39.0472 H         1 UNK         0.2998 
    101 H101       25.1299  -31.6039  -37.0424 H         1 UNK         0.0822 
    102 H102       27.4672  -33.3017  -38.0770 H         1 UNK         0.0787 
    103 H103       27.5462  -32.0961  -36.7912 H         1 UNK         0.0787 
    104 H104       26.6123  -33.5657  -36.5639 H         1 UNK         0.0787 
    105 H105       23.2353  -32.5837  -37.2032 H         1 UNK         0.3055 
    106 H106       21.4414  -33.6763  -37.9142 H         1 UNK         0.1106 
    107 H107       22.7805  -35.6995  -37.2578 H         1 UNK         0.0828 
    108 H108       21.6512  -36.0481  -38.5544 H         1 UNK         0.0828 
    109 H109       23.3585  -35.8490  -38.9169 H         1 UNK         0.0828 
    110 H110       22.6574  -31.7285  -39.7102 H         1 UNK         0.2931 
    111 H111       22.3868  -30.7831  -41.6512 H         1 UNK         0.0412 
    112 H112       24.9319  -33.4370  -42.8949 H         1 UNK         0.3472 
    113 H113       24.3769  -33.2426  -41.2504 H         1 UNK         0.3472 
    114 H114       20.4287  -32.9305  -42.5646 H         1 UNK         0.0970 
    115 H115       20.6950  -31.3699  -43.3005 H         1 UNK         0.0970 
    116 H116       18.0765  -33.0480  -42.0329 H         1 UNK         0.0612 
    117 H117       17.0933  -31.8448  -41.2416 H         1 UNK         0.0612 
@<TRIPOS>BOND
     1    1    2 1    
     2    1   62 1    
     3    1   63 1    
     4    1   64 1    
     5    2    3 2    
     6    2    4 am   BACKBONE|DICT|INTERRES
     7    4    5 1    
     8    4   65 1    
     9    5    6 1    
    10    5   25 1    
    11    5   66 1    
    12    6    7 1    
    13    6   67 1    
    14    6   68 1    
    15    7    8 1    
    16    8    9 1    
    17    8   69 1    
    18    8   70 1    
    19    9   10 ar   
    20    9   14 ar   
    21   10   11 ar   
    22   10   71 1    
    23   11   12 ar   
    24   11   61 1    
    25   12   13 ar   
    26   12   72 1    
    27   13   14 ar   
    28   13   15 1    
    29   14   73 1    
    30   15   16 1    
    31   15   74 1    
    32   15   75 1    
    33   16   17 1    
    34   17   18 1    
    35   17   76 1    
    36   17   77 1    
    37   18   19 1    
    38   18   27 1    
    39   18   78 1    
    40   19   20 am   BACKBONE|DICT|INTERRES
    41   19   79 1    
    42   20   21 2    
    43   20   22 1    
    44   22   23 1    
    45   22   24 1    
    46   22   80 1    
    47   23   81 1    
    48   23   82 1    
    49   23   83 1    
    50   24   25 am   BACKBONE|DICT|INTERRES
    51   24   84 1    
    52   25   26 2    
    53   27   28 2    
    54   27   29 am   BACKBONE|DICT|INTERRES
    55   29   30 1    
    56   29   85 1    
    57   30   31 1    
    58   30   32 1    
    59   30   86 1    
    60   31   87 1    
    61   31   88 1    
    62   31   89 1    
    63   32   33 2    
    64   32   34 am   BACKBONE|DICT|INTERRES
    65   34   35 1    
    66   34   90 1    
    67   35   36 1    
    68   35   37 1    
    69   35   91 1    
    70   36   92 1    
    71   36   93 1    
    72   36   94 1    
    73   37   38 2    
    74   37   39 am   BACKBONE|DICT|INTERRES
    75   39   40 1    
    76   39   95 1    
    77   40   41 1    
    78   40   42 1    
    79   40   96 1    
    80   41   97 1    
    81   41   98 1    
    82   41   99 1    
    83   42   43 2    
    84   42   44 am   BACKBONE|DICT|INTERRES
    85   44   45 1    
    86   44  100 1    
    87   45   46 1    
    88   45   47 1    
    89   45  101 1    
    90   46  102 1    
    91   46  103 1    
    92   46  104 1    
    93   47   48 2    
    94   47   49 am   BACKBONE|DICT|INTERRES
    95   49   50 1    
    96   49  105 1    
    97   50   51 1    
    98   50   52 1    
    99   50  106 1    
   100   51  107 1    
   101   51  108 1    
   102   51  109 1    
   103   52   53 2    
   104   52   54 am   BACKBONE|DICT|INTERRES
   105   54   55 1    
   106   54  110 1    
   107   55   56 1    
   108   55   59 1    
   109   55  111 1    
   110   56   57 am   BACKBONE|DICT|INTERRES
   111   56   58 2    
   112   57  112 1    
   113   57  113 1    
   114   59   60 1    
   115   59  114 1    
   116   59  115 1    
   117   60   61 1    
   118   61  116 1    
   119   61  117 1    
@<TRIPOS>SUBSTRUCTURE
     1 UNK         1 GROUP             0       ****    0 ROOT    
