@<TRIPOS>MOLECULE
3R8
117   119    1
SMALL
USER_CHARGES


@<TRIPOS>ATOM
      1 CA         19.5283  -23.0507  -40.8593 C.3       0 UNK        -0.2013 
      2 C          18.2925  -23.7740  -41.3709 C.2       0 UNK         0.4866 
      3 O          17.2590  -23.7745  -40.7008 O.2       0 UNK        -0.5176 
      4 N          18.3909  -24.3832  -42.5543 N.am      1 UNK        -0.4884 
      5 CA         17.3155  -25.1166  -43.2205 C.3       1 UNK         0.0853 
      6 C6         17.1350  -26.5609  -42.6607 C.3       10 UNK        -0.0849 
      7 S7         18.6290  -27.6164  -42.7571 S.3       10 UNK        -0.2776 
      8 C8         17.9745  -29.0994  -43.6031 C.3       10 UNK         0.0316 
      9 C9         19.0547  -30.0295  -44.1520 C.ar      10 UNK        -0.0863 
     10 C10        18.8309  -31.4091  -44.1675 C.ar      10 UNK        -0.1009 
     11 C11        19.7885  -32.2810  -44.6943 C.ar      10 UNK        -0.0712 
     12 C12        20.9796  -31.7642  -45.2121 C.ar      10 UNK        -0.0894 
     13 C13        21.2227  -30.3869  -45.2099 C.ar      10 UNK        -0.0745 
     14 C14        20.2506  -29.5311  -44.6816 C.ar      10 UNK        -0.0972 
     15 C15        22.5560  -29.8575  -45.7396 C.3       10 UNK         0.0209 
     16 S16        22.4239  -28.3506  -46.7675 S.3       10 UNK        -0.2568 
     17 C17        22.6242  -27.0387  -45.5122 C.3       10 UNK        -0.0983 
     18 CA         21.7620  -25.7717  -45.7653 C.3       3 UNK         0.0876 
     19 N          20.3430  -26.0867  -45.9069 N.am      3 UNK        -0.4424 
     20 C          19.5936  -25.9452  -47.0047 C.2       2 UNK         0.4918 
     21 O          20.0335  -25.6110  -48.1051 O.2       2 UNK        -0.4875 
     22 CA         18.0833  -26.2169  -46.8428 C.3       2 UNK         0.0481 
     23 CB         17.7349  -27.6101  -47.3918 C.3       2 UNK        -0.1831 
     24 N          17.6371  -26.1264  -45.4474 N.am      2 UNK        -0.4498 
     25 C          17.5433  -24.9922  -44.7401 C.2       1 UNK         0.5027 
     26 O          17.6660  -23.8719  -45.2402 O.2       1 UNK        -0.4969 
     27 C          21.8936  -24.7840  -44.5867 C.2       3 UNK         0.5005 
     28 O          20.9013  -24.4986  -43.9070 O.2       3 UNK        -0.5279 
     29 N          23.1200  -24.3049  -44.3296 N.am      4 UNK        -0.4463 
     30 CA         23.4543  -23.4343  -43.1926 C.3       4 UNK         0.0283 
     31 CB         24.9095  -22.9572  -43.3253 C.3       4 UNK        -0.1875 
     32 C          23.2277  -24.0893  -41.8145 C.2       4 UNK         0.4949 
     33 O          22.9531  -23.3799  -40.8469 O.2       4 UNK        -0.5039 
     34 N          23.3210  -25.4215  -41.7572 N.am      5 UNK        -0.4663 
     35 CA         22.9586  -26.2636  -40.6235 C.3       5 UNK         0.0242 
     36 CB         24.1149  -26.3215  -39.6087 C.3       5 UNK        -0.1982 
     37 C          22.6353  -27.6570  -41.1727 C.2       5 UNK         0.5017 
     38 O          23.2195  -28.0529  -42.1843 O.2       5 UNK        -0.5012 
     39 N          21.7354  -28.3802  -40.4939 N.am      6 UNK        -0.4439 
     40 CA         21.3098  -29.7327  -40.8742 C.3       6 UNK         0.0297 
     41 CB         20.0505  -30.1110  -40.0780 C.3       6 UNK        -0.2006 
     42 C          22.4064  -30.7981  -40.6919 C.2       6 UNK         0.4892 
     43 O          22.3980  -31.7978  -41.4107 O.2       6 UNK        -0.5089 
     44 N          23.3243  -30.5649  -39.7389 N.am      7 UNK        -0.4243 
     45 CA         24.4680  -31.4127  -39.3850 C.3       7 UNK         0.0196 
     46 CB         25.5476  -31.3392  -40.4897 C.3       7 UNK        -0.2007 
     47 C          24.0178  -32.8431  -39.0315 C.2       7 UNK         0.5020 
     48 O          23.3050  -33.0184  -38.0421 O.2       7 UNK        -0.5147 
     49 N          24.3975  -33.8290  -39.8556 N.am      8 UNK        -0.4734 
     50 CA         24.0098  -35.2377  -39.7280 C.3       8 UNK         0.0238 
     51 CB         24.7783  -36.0673  -40.7696 C.3       8 UNK        -0.1912 
     52 C          22.4948  -35.4921  -39.8508 C.2       8 UNK         0.5038 
     53 O          22.0189  -36.4980  -39.3221 O.2       8 UNK        -0.5046 
     54 N          21.7684  -34.5878  -40.5216 N.am      9 UNK        -0.4200 
     55 CA         20.3011  -34.6046  -40.6159 C.3       9 UNK         0.0839 
     56 C          19.5879  -34.0222  -39.3600 C.2       9 UNK         0.5513 
     57 N          20.2903  -33.4661  -38.3782 N.am      9 UNK        -0.7519 
     58 O          18.3647  -34.0845  -39.2706 O.2       9 UNK        -0.4960 
     59 C59        19.7954  -33.9194  -41.9120 C.3       10 UNK        -0.0876 
     60 S60        20.4931  -34.6535  -43.4293 S.3       10 UNK        -0.2414 
     61 C61        19.5351  -33.7824  -44.7090 C.3       10 UNK         0.0169 
     62 H62        19.9794  -23.6080  -40.0388 H         1 UNK         0.0903 
     63 H63        19.2637  -22.0583  -40.4955 H         1 UNK         0.0903 
     64 H64        20.2773  -22.9324  -41.6422 H         1 UNK         0.0903 
     65 H65        19.2699  -24.3433  -43.0722 H         1 UNK         0.3096 
     66 H66        16.3812  -24.5805  -43.0379 H         1 UNK         0.1121 
     67 H67        16.2884  -27.0509  -43.1445 H         1 UNK         0.0849 
     68 H68        16.8550  -26.4997  -41.6079 H         1 UNK         0.0849 
     69 H69        17.3415  -29.6368  -42.8949 H         1 UNK         0.0865 
     70 H70        17.3295  -28.8092  -44.4321 H         1 UNK         0.0865 
     71 H71        17.9071  -31.8079  -43.7710 H         1 UNK         0.1346 
     72 H72        21.7235  -32.4432  -45.6060 H         1 UNK         0.1412 
     73 H73        20.4277  -28.4696  -44.6754 H         1 UNK         0.1426 
     74 H74        23.0392  -30.6226  -46.3491 H         1 UNK         0.0716 
     75 H75        23.2260  -29.6763  -44.8977 H         1 UNK         0.0716 
     76 H76        23.6842  -26.7816  -45.4860 H         1 UNK         0.0695 
     77 H77        22.3967  -27.4546  -44.5313 H         1 UNK         0.0695 
     78 H78        22.1227  -25.2641  -46.6625 H         1 UNK         0.0983 
     79 H79        19.8706  -26.2593  -45.0315 H         1 UNK         0.3095 
     80 H80        17.5431  -25.4701  -47.4281 H         1 UNK         0.0454 
     81 H81        18.2679  -28.4006  -46.8616 H         1 UNK         0.0851 
     82 H82        18.0053  -27.6903  -48.4456 H         1 UNK         0.0851 
     83 H83        16.6666  -27.8132  -47.3174 H         1 UNK         0.0851 
     84 H84        17.5432  -26.9970  -44.9454 H         1 UNK         0.2976 
     85 H85        23.8861  -24.5729  -44.9315 H         1 UNK         0.3116 
     86 H86        22.8029  -22.5592  -43.2453 H         1 UNK         0.0646 
     87 H87        25.0662  -22.4084  -44.2541 H         1 UNK         0.0847 
     88 H88        25.6125  -23.7907  -43.3022 H         1 UNK         0.0847 
     89 H89        25.1751  -22.2859  -42.5072 H         1 UNK         0.0847 
     90 H90        23.5385  -25.9418  -42.5980 H         1 UNK         0.3040 
     91 H91        22.0650  -25.8536  -40.1471 H         1 UNK         0.1015 
     92 H92        23.8582  -26.9520  -38.7567 H         1 UNK         0.0786 
     93 H93        24.3510  -25.3317  -39.2178 H         1 UNK         0.0786 
     94 H94        25.0221  -26.7290  -40.0569 H         1 UNK         0.0786 
     95 H95        21.2980  -27.9797  -39.6762 H         1 UNK         0.3172 
     96 H96        21.0474  -29.7157  -41.9335 H         1 UNK         0.0595 
     97 H97        19.2464  -29.3934  -40.2415 H         1 UNK         0.0839 
     98 H98        20.2466  -30.1625  -39.0064 H         1 UNK         0.0839 
     99 H99        19.6728  -31.0857  -40.3854 H         1 UNK         0.0839 
    100 H100       23.2116  -29.7298  -39.1831 H         1 UNK         0.2998 
    101 H101       24.8982  -30.9957  -38.4731 H         1 UNK         0.0822 
    102 H102       25.8844  -30.3123  -40.6332 H         1 UNK         0.0787 
    103 H103       26.4271  -31.9276  -40.2245 H         1 UNK         0.0787 
    104 H104       25.1813  -31.6965  -41.4530 H         1 UNK         0.0787 
    105 H105       24.9543  -33.5825  -40.6615 H         1 UNK         0.3055 
    106 H106       24.3085  -35.5727  -38.7321 H         1 UNK         0.1106 
    107 H107       24.5338  -35.7624  -41.7880 H         1 UNK         0.0828 
    108 H108       24.5356  -37.1273  -40.6805 H         1 UNK         0.0828 
    109 H109       25.8563  -35.9727  -40.6380 H         1 UNK         0.0828 
    110 H110       22.2238  -33.7665  -40.9069 H         1 UNK         0.2931 
    111 H111       19.9857  -35.6483  -40.6719 H         1 UNK         0.0412 
    112 H112       19.8035  -33.1057  -37.5732 H         1 UNK         0.3472 
    113 H113       21.3015  -33.4148  -38.4166 H         1 UNK         0.3472 
    114 H114       18.7074  -33.9820  -41.9763 H         1 UNK         0.0970 
    115 H115       20.0403  -32.8572  -41.9008 H         1 UNK         0.0970 
    116 H116       18.4742  -33.9984  -44.5733 H         1 UNK         0.0612 
    117 H117       19.8059  -34.1852  -45.6860 H         1 UNK         0.0612 
@<TRIPOS>BOND
     1    1    2 1    
     2    1   62 1    
     3    1   63 1    
     4    1   64 1    
     5    2    3 2    
     6    2    4 am   BACKBONE|DICT|INTERRES
     7    4    5 1    
     8    4   65 1    
     9    5    6 1    
    10    5   25 1    
    11    5   66 1    
    12    6    7 1    
    13    6   67 1    
    14    6   68 1    
    15    7    8 1    
    16    8    9 1    
    17    8   69 1    
    18    8   70 1    
    19    9   10 ar   
    20    9   14 ar   
    21   10   11 ar   
    22   10   71 1    
    23   11   12 ar   
    24   11   61 1    
    25   12   13 ar   
    26   12   72 1    
    27   13   14 ar   
    28   13   15 1    
    29   14   73 1    
    30   15   16 1    
    31   15   74 1    
    32   15   75 1    
    33   16   17 1    
    34   17   18 1    
    35   17   76 1    
    36   17   77 1    
    37   18   19 1    
    38   18   27 1    
    39   18   78 1    
    40   19   20 am   BACKBONE|DICT|INTERRES
    41   19   79 1    
    42   20   21 2    
    43   20   22 1    
    44   22   23 1    
    45   22   24 1    
    46   22   80 1    
    47   23   81 1    
    48   23   82 1    
    49   23   83 1    
    50   24   25 am   BACKBONE|DICT|INTERRES
    51   24   84 1    
    52   25   26 2    
    53   27   28 2    
    54   27   29 am   BACKBONE|DICT|INTERRES
    55   29   30 1    
    56   29   85 1    
    57   30   31 1    
    58   30   32 1    
    59   30   86 1    
    60   31   87 1    
    61   31   88 1    
    62   31   89 1    
    63   32   33 2    
    64   32   34 am   BACKBONE|DICT|INTERRES
    65   34   35 1    
    66   34   90 1    
    67   35   36 1    
    68   35   37 1    
    69   35   91 1    
    70   36   92 1    
    71   36   93 1    
    72   36   94 1    
    73   37   38 2    
    74   37   39 am   BACKBONE|DICT|INTERRES
    75   39   40 1    
    76   39   95 1    
    77   40   41 1    
    78   40   42 1    
    79   40   96 1    
    80   41   97 1    
    81   41   98 1    
    82   41   99 1    
    83   42   43 2    
    84   42   44 am   BACKBONE|DICT|INTERRES
    85   44   45 1    
    86   44  100 1    
    87   45   46 1    
    88   45   47 1    
    89   45  101 1    
    90   46  102 1    
    91   46  103 1    
    92   46  104 1    
    93   47   48 2    
    94   47   49 am   BACKBONE|DICT|INTERRES
    95   49   50 1    
    96   49  105 1    
    97   50   51 1    
    98   50   52 1    
    99   50  106 1    
   100   51  107 1    
   101   51  108 1    
   102   51  109 1    
   103   52   53 2    
   104   52   54 am   BACKBONE|DICT|INTERRES
   105   54   55 1    
   106   54  110 1    
   107   55   56 1    
   108   55   59 1    
   109   55  111 1    
   110   56   57 am   BACKBONE|DICT|INTERRES
   111   56   58 2    
   112   57  112 1    
   113   57  113 1    
   114   59   60 1    
   115   59  114 1    
   116   59  115 1    
   117   60   61 1    
   118   61  116 1    
   119   61  117 1    
@<TRIPOS>SUBSTRUCTURE
     1 UNK         1 GROUP             0       ****    0 ROOT    
