@<TRIPOS>MOLECULE
3R8
117   119    1
SMALL
USER_CHARGES


@<TRIPOS>ATOM
      1 CA         13.8333  -23.0916  -46.7251 C.3       0 UNK        -0.2013 
      2 C          14.6259  -23.7442  -45.6026 C.2       0 UNK         0.4866 
      3 O          14.6724  -23.2046  -44.4973 O.2       0 UNK        -0.5176 
      4 N          15.2572  -24.8931  -45.8864 N.am      1 UNK        -0.4884 
      5 CA         16.0491  -25.7181  -44.9555 C.3       1 UNK         0.0853 
      6 C6         15.2128  -26.3054  -43.7827 C.3       10 UNK        -0.0849 
      7 S7         13.9598  -27.4815  -44.4036 S.3       10 UNK        -0.2776 
      8 C8         14.4658  -29.0598  -43.6320 C.3       10 UNK         0.0316 
      9 C9         15.9410  -29.4049  -43.8242 C.ar      10 UNK        -0.0863 
     10 C10        16.7162  -29.7681  -42.7173 C.ar      10 UNK        -0.1009 
     11 C11        18.0671  -30.0911  -42.8706 C.ar      10 UNK        -0.0712 
     12 C12        18.6463  -30.0447  -44.1407 C.ar      10 UNK        -0.0894 
     13 C13        17.8891  -29.6704  -45.2534 C.ar      10 UNK        -0.0745 
     14 C14        16.5323  -29.3708  -45.0927 C.ar      10 UNK        -0.0972 
     15 C15        18.5369  -29.5908  -46.6279 C.3       10 UNK         0.0209 
     16 S16        19.1265  -27.9077  -46.9990 S.3       10 UNK        -0.2568 
     17 C17        20.6584  -27.8207  -46.0071 C.3       10 UNK        -0.0983 
     18 CA         21.2549  -26.3924  -45.9702 C.3       3 UNK         0.0876 
     19 N          20.3027  -25.4335  -45.4032 N.am      3 UNK        -0.4424 
     20 C          20.2839  -24.1176  -45.6418 C.2       2 UNK         0.4918 
     21 O          21.1273  -23.5397  -46.3289 O.2       2 UNK        -0.4875 
     22 CA         19.1041  -23.3309  -45.0296 C.3       2 UNK         0.0481 
     23 CB         18.9901  -21.9026  -45.5936 C.3       2 UNK        -0.1831 
     24 N          17.8243  -24.0221  -45.2257 N.am      2 UNK        -0.4498 
     25 C          17.3615  -25.0450  -44.4915 C.2       1 UNK         0.5027 
     26 O          17.9808  -25.5026  -43.5296 O.2       1 UNK        -0.4969 
     27 C          22.6054  -26.3841  -45.2234 C.2       3 UNK         0.5005 
     28 O          23.6080  -26.8127  -45.7965 O.2       3 UNK        -0.5279 
     29 N          22.6064  -25.9047  -43.9673 N.am      4 UNK        -0.4463 
     30 CA         23.7545  -25.7772  -43.0576 C.3       4 UNK         0.0283 
     31 CB         24.7721  -24.7492  -43.5967 C.3       4 UNK        -0.1875 
     32 C          24.4111  -27.1228  -42.6854 C.2       4 UNK         0.4949 
     33 O          25.6076  -27.1646  -42.3936 O.2       4 UNK        -0.5039 
     34 N          23.6163  -28.2019  -42.6603 N.am      5 UNK        -0.4663 
     35 CA         24.0358  -29.5680  -42.3267 C.3       5 UNK         0.0242 
     36 CB         23.0504  -30.5594  -42.9759 C.3       5 UNK        -0.1982 
     37 C          24.1839  -29.7815  -40.8052 C.2       5 UNK         0.5017 
     38 O          23.6035  -30.7195  -40.2525 O.2       5 UNK        -0.5012 
     39 N          24.9522  -28.8996  -40.1520 N.am      6 UNK        -0.4439 
     40 CA         25.2273  -28.8824  -38.7138 C.3       6 UNK         0.0297 
     41 CB         26.1119  -27.6693  -38.3809 C.3       6 UNK        -0.2006 
     42 C          25.8785  -30.1934  -38.2442 C.2       6 UNK         0.4892 
     43 O          27.0166  -30.4749  -38.6232 O.2       6 UNK        -0.5089 
     44 N          25.1106  -30.9801  -37.4761 N.am      7 UNK        -0.4243 
     45 CA         25.4127  -32.3326  -36.9836 C.3       7 UNK         0.0196 
     46 CB         26.6446  -32.3237  -36.0528 C.3       7 UNK        -0.2007 
     47 C          25.5237  -33.4093  -38.0864 C.2       7 UNK         0.5020 
     48 O          25.9283  -34.5328  -37.7840 O.2       7 UNK        -0.5147 
     49 N          25.1491  -33.0732  -39.3279 N.am      8 UNK        -0.4734 
     50 CA         25.1530  -33.9743  -40.4836 C.3       8 UNK         0.0238 
     51 CB         25.9237  -33.3083  -41.6359 C.3       8 UNK        -0.1912 
     52 C          23.7301  -34.3480  -40.9292 C.2       8 UNK         0.5038 
     53 O          23.5673  -35.3786  -41.5839 O.2       8 UNK        -0.5046 
     54 N          22.7356  -33.5181  -40.5814 N.am      9 UNK        -0.4200 
     55 CA         21.3080  -33.7366  -40.8528 C.3       9 UNK         0.0839 
     56 C          20.7579  -35.0336  -40.1945 C.2       9 UNK         0.5513 
     57 N          19.9007  -35.7702  -40.8875 N.am      9 UNK        -0.7519 
     58 O          21.0733  -35.3519  -39.0494 O.2       9 UNK        -0.4960 
     59 C59        20.4677  -32.4962  -40.4414 C.3       10 UNK        -0.0876 
     60 S60        19.0004  -32.2929  -41.5067 S.3       10 UNK        -0.2414 
     61 C61        18.9115  -30.4840  -41.6703 C.3       10 UNK         0.0169 
     62 H62        12.7858  -23.0002  -46.4390 H         1 UNK         0.0903 
     63 H63        14.2197  -22.0928  -46.9264 H         1 UNK         0.0903 
     64 H64        13.8824  -23.6671  -47.6493 H         1 UNK         0.0903 
     65 H65        15.1707  -25.2751  -46.8189 H         1 UNK         0.3096 
     66 H66        16.4005  -26.5627  -45.5500 H         1 UNK         0.1121 
     67 H67        15.8476  -26.8163  -43.0574 H         1 UNK         0.0849 
     68 H68        14.7111  -25.5153  -43.2230 H         1 UNK         0.0849 
     69 H69        14.2183  -29.0129  -42.5703 H         1 UNK         0.0865 
     70 H70        13.8601  -29.8651  -44.0497 H         1 UNK         0.0865 
     71 H71        16.2697  -29.8040  -41.7328 H         1 UNK         0.1346 
     72 H72        19.6911  -30.2970  -44.2599 H         1 UNK         0.1412 
     73 H73        15.9396  -29.0915  -45.9532 H         1 UNK         0.1426 
     74 H74        19.3654  -30.2966  -46.7060 H         1 UNK         0.0716 
     75 H75        17.8145  -29.8853  -47.3906 H         1 UNK         0.0716 
     76 H76        20.4487  -28.1603  -44.9928 H         1 UNK         0.0695 
     77 H77        21.3740  -28.5279  -46.4315 H         1 UNK         0.0695 
     78 H78        21.4672  -26.0913  -46.9989 H         1 UNK         0.0983 
     79 H79        19.5669  -25.8152  -44.8200 H         1 UNK         0.3095 
     80 H80        19.2976  -23.2472  -43.9583 H         1 UNK         0.0454 
     81 H81        18.8247  -21.9056  -46.6716 H         1 UNK         0.0851 
     82 H82        18.1685  -21.3570  -45.1291 H         1 UNK         0.0851 
     83 H83        19.9007  -21.3324  -45.4046 H         1 UNK         0.0851 
     84 H84        17.2728  -23.7337  -46.0211 H         1 UNK         0.2976 
     85 H85        21.7217  -25.5835  -43.5988 H         1 UNK         0.3116 
     86 H86        23.3542  -25.3776  -42.1247 H         1 UNK         0.0646 
     87 H87        25.5448  -24.5369  -42.8568 H         1 UNK         0.0847 
     88 H88        24.2901  -23.8021  -43.8390 H         1 UNK         0.0847 
     89 H89        25.2748  -25.1093  -44.4947 H         1 UNK         0.0847 
     90 H90        22.6386  -28.0711  -42.8731 H         1 UNK         0.3040 
     91 H91        25.0199  -29.7472  -42.7659 H         1 UNK         0.1015 
     92 H92        23.0026  -30.4199  -44.0561 H         1 UNK         0.0786 
     93 H93        22.0429  -30.4449  -42.5795 H         1 UNK         0.0786 
     94 H94        23.3515  -31.5924  -42.8005 H         1 UNK         0.0786 
     95 H95        25.4031  -28.1846  -40.7151 H         1 UNK         0.3172 
     96 H96        24.2732  -28.7542  -38.1981 H         1 UNK         0.0595 
     97 H97        27.0668  -27.7086  -38.9070 H         1 UNK         0.0839 
     98 H98        26.3301  -27.6272  -37.3129 H         1 UNK         0.0839 
     99 H99        25.6208  -26.7334  -38.6479 H         1 UNK         0.0839 
    100 H100       24.1791  -30.6494  -37.2619 H         1 UNK         0.2998 
    101 H101       24.5524  -32.6242  -36.3792 H         1 UNK         0.0822 
    102 H102       26.5455  -31.5720  -35.2697 H         1 UNK         0.0787 
    103 H103       26.7694  -33.2881  -35.5587 H         1 UNK         0.0787 
    104 H104       27.5658  -32.1206  -36.5994 H         1 UNK         0.0787 
    105 H105       24.8085  -32.1311  -39.4893 H         1 UNK         0.3055 
    106 H106       25.6618  -34.9086  -40.2356 H         1 UNK         0.1106 
    107 H107       25.9478  -33.9534  -42.5154 H         1 UNK         0.0828 
    108 H108       25.4726  -32.3635  -41.9360 H         1 UNK         0.0828 
    109 H109       26.9574  -33.1082  -41.3534 H         1 UNK         0.0828 
    110 H110       22.9702  -32.6639  -40.0922 H         1 UNK         0.2931 
    111 H111       21.2419  -33.8538  -41.9369 H         1 UNK         0.0412 
    112 H112       19.5215  -36.6073  -40.4727 H         1 UNK         0.3472 
    113 H113       19.6166  -35.4957  -41.8155 H         1 UNK         0.3472 
    114 H114       20.1578  -32.5420  -39.3952 H         1 UNK         0.0970 
    115 H115       21.0722  -31.5927  -40.5248 H         1 UNK         0.0970 
    116 H116       18.4995  -30.0603  -40.7531 H         1 UNK         0.0612 
    117 H117       19.9095  -30.0610  -41.7819 H         1 UNK         0.0612 
@<TRIPOS>BOND
     1    1    2 1    
     2    1   62 1    
     3    1   63 1    
     4    1   64 1    
     5    2    3 2    
     6    2    4 am   BACKBONE|DICT|INTERRES
     7    4    5 1    
     8    4   65 1    
     9    5    6 1    
    10    5   25 1    
    11    5   66 1    
    12    6    7 1    
    13    6   67 1    
    14    6   68 1    
    15    7    8 1    
    16    8    9 1    
    17    8   69 1    
    18    8   70 1    
    19    9   10 ar   
    20    9   14 ar   
    21   10   11 ar   
    22   10   71 1    
    23   11   12 ar   
    24   11   61 1    
    25   12   13 ar   
    26   12   72 1    
    27   13   14 ar   
    28   13   15 1    
    29   14   73 1    
    30   15   16 1    
    31   15   74 1    
    32   15   75 1    
    33   16   17 1    
    34   17   18 1    
    35   17   76 1    
    36   17   77 1    
    37   18   19 1    
    38   18   27 1    
    39   18   78 1    
    40   19   20 am   BACKBONE|DICT|INTERRES
    41   19   79 1    
    42   20   21 2    
    43   20   22 1    
    44   22   23 1    
    45   22   24 1    
    46   22   80 1    
    47   23   81 1    
    48   23   82 1    
    49   23   83 1    
    50   24   25 am   BACKBONE|DICT|INTERRES
    51   24   84 1    
    52   25   26 2    
    53   27   28 2    
    54   27   29 am   BACKBONE|DICT|INTERRES
    55   29   30 1    
    56   29   85 1    
    57   30   31 1    
    58   30   32 1    
    59   30   86 1    
    60   31   87 1    
    61   31   88 1    
    62   31   89 1    
    63   32   33 2    
    64   32   34 am   BACKBONE|DICT|INTERRES
    65   34   35 1    
    66   34   90 1    
    67   35   36 1    
    68   35   37 1    
    69   35   91 1    
    70   36   92 1    
    71   36   93 1    
    72   36   94 1    
    73   37   38 2    
    74   37   39 am   BACKBONE|DICT|INTERRES
    75   39   40 1    
    76   39   95 1    
    77   40   41 1    
    78   40   42 1    
    79   40   96 1    
    80   41   97 1    
    81   41   98 1    
    82   41   99 1    
    83   42   43 2    
    84   42   44 am   BACKBONE|DICT|INTERRES
    85   44   45 1    
    86   44  100 1    
    87   45   46 1    
    88   45   47 1    
    89   45  101 1    
    90   46  102 1    
    91   46  103 1    
    92   46  104 1    
    93   47   48 2    
    94   47   49 am   BACKBONE|DICT|INTERRES
    95   49   50 1    
    96   49  105 1    
    97   50   51 1    
    98   50   52 1    
    99   50  106 1    
   100   51  107 1    
   101   51  108 1    
   102   51  109 1    
   103   52   53 2    
   104   52   54 am   BACKBONE|DICT|INTERRES
   105   54   55 1    
   106   54  110 1    
   107   55   56 1    
   108   55   59 1    
   109   55  111 1    
   110   56   57 am   BACKBONE|DICT|INTERRES
   111   56   58 2    
   112   57  112 1    
   113   57  113 1    
   114   59   60 1    
   115   59  114 1    
   116   59  115 1    
   117   60   61 1    
   118   61  116 1    
   119   61  117 1    
@<TRIPOS>SUBSTRUCTURE
     1 UNK         1 GROUP             0       ****    0 ROOT    
