@<TRIPOS>MOLECULE
3R8
117   119    1
SMALL
USER_CHARGES


@<TRIPOS>ATOM
      1 CA         15.4746  -27.9772  -42.1970 C.3       0 UNK        -0.2013 
      2 C          15.8081  -27.0763  -43.3759 C.2       0 UNK         0.4866 
      3 O          15.4180  -25.9077  -43.3885 O.2       0 UNK        -0.5176 
      4 N          16.5293  -27.6062  -44.3704 N.am      1 UNK        -0.4884 
      5 CA         16.9133  -26.9294  -45.6158 C.3       1 UNK         0.0853 
      6 C6         17.1898  -27.9330  -46.7741 C.3       10 UNK        -0.0849 
      7 S7         15.9518  -29.2708  -46.9335 S.3       10 UNK        -0.2776 
      8 C8         16.9494  -30.7554  -46.5602 C.3       10 UNK         0.0316 
      9 C9         17.2166  -30.9190  -45.0682 C.ar      10 UNK        -0.0863 
     10 C10        16.4030  -31.7530  -44.2935 C.ar      10 UNK        -0.1009 
     11 C11        16.6548  -31.9221  -42.9278 C.ar      10 UNK        -0.0712 
     12 C12        17.6947  -31.2104  -42.3264 C.ar      10 UNK        -0.0894 
     13 C13        18.5281  -30.3950  -43.0930 C.ar      10 UNK        -0.0745 
     14 C14        18.2966  -30.2668  -44.4646 C.ar      10 UNK        -0.0972 
     15 C15        19.6891  -29.6643  -42.4452 C.3       10 UNK         0.0209 
     16 S16        19.1599  -28.0457  -41.8203 S.3       10 UNK        -0.2568 
     17 C17        20.7738  -27.2763  -41.4689 C.3       10 UNK        -0.0983 
     18 CA         21.4316  -26.6657  -42.7384 C.3       3 UNK         0.0876 
     19 N          20.5418  -25.7725  -43.4895 N.am      3 UNK        -0.4424 
     20 C          20.0058  -24.6172  -43.0797 C.2       2 UNK         0.4918 
     21 O          20.3109  -24.0469  -42.0322 O.2       2 UNK        -0.4875 
     22 CA         18.9070  -24.0077  -43.9746 C.3       2 UNK         0.0481 
     23 CB         19.5175  -23.1529  -45.1023 C.3       2 UNK        -0.1831 
     24 N          17.9321  -24.9871  -44.4893 N.am      2 UNK        -0.4498 
     25 C          18.1109  -25.9781  -45.3761 C.2       1 UNK         0.5027 
     26 O          19.1884  -26.1894  -45.9375 O.2       1 UNK        -0.4969 
     27 C          22.8162  -26.0458  -42.4587 C.2       3 UNK         0.5005 
     28 O          23.3824  -26.2526  -41.3810 O.2       3 UNK        -0.5279 
     29 N          23.3436  -25.3124  -43.4515 N.am      4 UNK        -0.4463 
     30 CA         24.6631  -24.6743  -43.4414 C.3       4 UNK         0.0283 
     31 CB         24.8908  -23.9636  -44.7851 C.3       4 UNK        -0.1875 
     32 C          25.8041  -25.6682  -43.1588 C.2       4 UNK         0.4949 
     33 O          25.7458  -26.8127  -43.6132 O.2       4 UNK        -0.5039 
     34 N          26.8051  -25.2003  -42.4001 N.am      5 UNK        -0.4663 
     35 CA         27.9387  -25.9663  -41.8596 C.3       5 UNK         0.0242 
     36 CB         28.8274  -26.5331  -42.9888 C.3       5 UNK        -0.1982 
     37 C          27.5210  -27.0361  -40.8262 C.2       5 UNK         0.5017 
     38 O          28.2487  -28.0123  -40.6381 O.2       5 UNK        -0.5012 
     39 N          26.3759  -26.8122  -40.1596 N.am      6 UNK        -0.4439 
     40 CA         25.7635  -27.6438  -39.1164 C.3       6 UNK         0.0297 
     41 CB         26.6281  -27.6446  -37.8370 C.3       6 UNK        -0.2006 
     42 C          25.4211  -29.0597  -39.6165 C.2       6 UNK         0.4892 
     43 O          25.8574  -30.0507  -39.0261 O.2       6 UNK        -0.5089 
     44 N          24.6549  -29.1223  -40.7133 N.am      7 UNK        -0.4243 
     45 CA         24.1692  -30.3696  -41.3107 C.3       7 UNK         0.0196 
     46 CB         23.6076  -30.0689  -42.7081 C.3       7 UNK        -0.2007 
     47 C          23.1096  -31.0607  -40.4308 C.2       7 UNK         0.5020 
     48 O          22.3850  -30.3839  -39.6986 O.2       7 UNK        -0.5147 
     49 N          23.0387  -32.3948  -40.5313 N.am      8 UNK        -0.4734 
     50 CA         22.1015  -33.2459  -39.7923 C.3       8 UNK         0.0238 
     51 CB         22.7018  -34.6590  -39.6452 C.3       8 UNK        -0.1912 
     52 C          20.7106  -33.2395  -40.4518 C.2       8 UNK         0.5038 
     53 O          19.8941  -32.3847  -40.1145 O.2       8 UNK        -0.5046 
     54 N          20.4700  -34.1843  -41.3680 N.am      9 UNK        -0.4200 
     55 CA         19.2666  -34.3350  -42.1957 C.3       9 UNK         0.0839 
     56 C          19.5417  -35.4158  -43.2720 C.2       9 UNK         0.5513 
     57 N          19.0582  -35.2219  -44.4907 N.am      9 UNK        -0.7519 
     58 O          20.1864  -36.4295  -43.0079 O.2       9 UNK        -0.4960 
     59 C59        17.9832  -34.6252  -41.3585 C.3       10 UNK        -0.0876 
     60 S60        16.4234  -34.6091  -42.3180 S.3       10 UNK        -0.2414 
     61 C61        15.8274  -32.8985  -42.1072 C.3       10 UNK         0.0169 
     62 H62        15.7788  -29.0078  -42.3772 H         1 UNK         0.0903 
     63 H63        15.9833  -27.6247  -41.3003 H         1 UNK         0.0903 
     64 H64        14.4015  -27.9700  -42.0085 H         1 UNK         0.0903 
     65 H65        16.8306  -28.5697  -44.2981 H         1 UNK         0.3096 
     66 H66        16.0736  -26.3044  -45.9286 H         1 UNK         0.1121 
     67 H67        18.1779  -28.3831  -46.6852 H         1 UNK         0.0849 
     68 H68        17.2129  -27.3919  -47.7218 H         1 UNK         0.0849 
     69 H69        16.4177  -31.6307  -46.9367 H         1 UNK         0.0865 
     70 H70        17.8898  -30.7222  -47.1125 H         1 UNK         0.0865 
     71 H71        15.5867  -32.2911  -44.7563 H         1 UNK         0.1346 
     72 H72        17.8820  -31.3217  -41.2675 H         1 UNK         0.1412 
     73 H73        18.9577  -29.6483  -45.0545 H         1 UNK         0.1426 
     74 H74        20.4875  -29.5380  -43.1757 H         1 UNK         0.0716 
     75 H75        20.1077  -30.2496  -41.6263 H         1 UNK         0.0716 
     76 H76        21.4235  -28.0249  -41.0112 H         1 UNK         0.0695 
     77 H77        20.6209  -26.5057  -40.7115 H         1 UNK         0.0695 
     78 H78        21.6363  -27.4878  -43.4237 H         1 UNK         0.0983 
     79 H79        20.2142  -26.1223  -44.3864 H         1 UNK         0.3095 
     80 H80        18.3273  -23.3364  -43.3392 H         1 UNK         0.0454 
     81 H81        20.1416  -23.7408  -45.7755 H         1 UNK         0.0851 
     82 H82        20.1462  -22.3623  -44.6907 H         1 UNK         0.0851 
     83 H83        18.7424  -22.6717  -45.6984 H         1 UNK         0.0851 
     84 H84        17.0251  -24.9737  -44.0292 H         1 UNK         0.2976 
     85 H85        22.8057  -25.2168  -44.3003 H         1 UNK         0.3116 
     86 H86        24.6488  -23.9232  -42.6488 H         1 UNK         0.0646 
     87 H87        24.1258  -23.2101  -44.9733 H         1 UNK         0.0847 
     88 H88        25.8549  -23.4532  -44.7995 H         1 UNK         0.0847 
     89 H89        24.8841  -24.6670  -45.6188 H         1 UNK         0.0847 
     90 H90        26.7576  -24.2355  -42.0990 H         1 UNK         0.3040 
     91 H91        28.5456  -25.2497  -41.3034 H         1 UNK         0.1015 
     92 H92        28.3310  -27.3362  -43.5340 H         1 UNK         0.0786 
     93 H93        29.7549  -26.9429  -42.5871 H         1 UNK         0.0786 
     94 H94        29.1015  -25.7591  -43.7055 H         1 UNK         0.0786 
     95 H95        25.8310  -26.0076  -40.4396 H         1 UNK         0.3172 
     96 H96        24.8121  -27.1706  -38.8675 H         1 UNK         0.0595 
     97 H97        27.5928  -28.1269  -37.9974 H         1 UNK         0.0839 
     98 H98        26.1281  -28.1821  -37.0303 H         1 UNK         0.0839 
     99 H99        26.8145  -26.6309  -37.4829 H         1 UNK         0.0839 
    100 H100       24.3167  -28.2536  -41.1098 H         1 UNK         0.2998 
    101 H101       25.0226  -31.0429  -41.4184 H         1 UNK         0.0822 
    102 H102       23.2625  -30.9791  -43.2003 H         1 UNK         0.0787 
    103 H103       22.7634  -29.3857  -42.6542 H         1 UNK         0.0787 
    104 H104       24.3636  -29.6167  -43.3511 H         1 UNK         0.0787 
    105 H105       23.6573  -32.8634  -41.1781 H         1 UNK         0.3055 
    106 H106       21.9738  -32.8377  -38.7866 H         1 UNK         0.1106 
    107 H107       22.0014  -35.3337  -39.1503 H         1 UNK         0.0828 
    108 H108       22.9682  -35.1031  -40.6049 H         1 UNK         0.0828 
    109 H109       23.6046  -34.6358  -39.0344 H         1 UNK         0.0828 
    110 H110       21.1904  -34.8636  -41.5735 H         1 UNK         0.2931 
    111 H111       19.1431  -33.3884  -42.7197 H         1 UNK         0.0412 
    112 H112       19.2231  -35.9154  -45.2034 H         1 UNK         0.3472 
    113 H113       18.5055  -34.4047  -44.7001 H         1 UNK         0.3472 
    114 H114       18.0714  -35.5971  -40.8699 H         1 UNK         0.0970 
    115 H115       17.8792  -33.9038  -40.5486 H         1 UNK         0.0970 
    116 H116       14.7848  -32.8475  -42.4242 H         1 UNK         0.0612 
    117 H117       15.8393  -32.6292  -41.0499 H         1 UNK         0.0612 
@<TRIPOS>BOND
     1    1    2 1    
     2    1   62 1    
     3    1   63 1    
     4    1   64 1    
     5    2    3 2    
     6    2    4 am   BACKBONE|DICT|INTERRES
     7    4    5 1    
     8    4   65 1    
     9    5    6 1    
    10    5   25 1    
    11    5   66 1    
    12    6    7 1    
    13    6   67 1    
    14    6   68 1    
    15    7    8 1    
    16    8    9 1    
    17    8   69 1    
    18    8   70 1    
    19    9   10 ar   
    20    9   14 ar   
    21   10   11 ar   
    22   10   71 1    
    23   11   12 ar   
    24   11   61 1    
    25   12   13 ar   
    26   12   72 1    
    27   13   14 ar   
    28   13   15 1    
    29   14   73 1    
    30   15   16 1    
    31   15   74 1    
    32   15   75 1    
    33   16   17 1    
    34   17   18 1    
    35   17   76 1    
    36   17   77 1    
    37   18   19 1    
    38   18   27 1    
    39   18   78 1    
    40   19   20 am   BACKBONE|DICT|INTERRES
    41   19   79 1    
    42   20   21 2    
    43   20   22 1    
    44   22   23 1    
    45   22   24 1    
    46   22   80 1    
    47   23   81 1    
    48   23   82 1    
    49   23   83 1    
    50   24   25 am   BACKBONE|DICT|INTERRES
    51   24   84 1    
    52   25   26 2    
    53   27   28 2    
    54   27   29 am   BACKBONE|DICT|INTERRES
    55   29   30 1    
    56   29   85 1    
    57   30   31 1    
    58   30   32 1    
    59   30   86 1    
    60   31   87 1    
    61   31   88 1    
    62   31   89 1    
    63   32   33 2    
    64   32   34 am   BACKBONE|DICT|INTERRES
    65   34   35 1    
    66   34   90 1    
    67   35   36 1    
    68   35   37 1    
    69   35   91 1    
    70   36   92 1    
    71   36   93 1    
    72   36   94 1    
    73   37   38 2    
    74   37   39 am   BACKBONE|DICT|INTERRES
    75   39   40 1    
    76   39   95 1    
    77   40   41 1    
    78   40   42 1    
    79   40   96 1    
    80   41   97 1    
    81   41   98 1    
    82   41   99 1    
    83   42   43 2    
    84   42   44 am   BACKBONE|DICT|INTERRES
    85   44   45 1    
    86   44  100 1    
    87   45   46 1    
    88   45   47 1    
    89   45  101 1    
    90   46  102 1    
    91   46  103 1    
    92   46  104 1    
    93   47   48 2    
    94   47   49 am   BACKBONE|DICT|INTERRES
    95   49   50 1    
    96   49  105 1    
    97   50   51 1    
    98   50   52 1    
    99   50  106 1    
   100   51  107 1    
   101   51  108 1    
   102   51  109 1    
   103   52   53 2    
   104   52   54 am   BACKBONE|DICT|INTERRES
   105   54   55 1    
   106   54  110 1    
   107   55   56 1    
   108   55   59 1    
   109   55  111 1    
   110   56   57 am   BACKBONE|DICT|INTERRES
   111   56   58 2    
   112   57  112 1    
   113   57  113 1    
   114   59   60 1    
   115   59  114 1    
   116   59  115 1    
   117   60   61 1    
   118   61  116 1    
   119   61  117 1    
@<TRIPOS>SUBSTRUCTURE
     1 UNK         1 GROUP             0       ****    0 ROOT    
