@<TRIPOS>MOLECULE
3R8
117   119    1
SMALL
USER_CHARGES


@<TRIPOS>ATOM
      1 CA         15.6011  -23.3155  -43.9366 C.3       0 UNK        -0.2013 
      2 C          15.3176  -24.6928  -43.3409 C.2       0 UNK         0.4866 
      3 O          14.5466  -24.7872  -42.3877 O.2       0 UNK        -0.5176 
      4 N          15.8895  -25.7869  -43.8636 N.am      1 UNK        -0.4884 
      5 CA         16.8824  -25.8504  -44.9433 C.3       1 UNK         0.0853 
      6 C6         17.1161  -27.3090  -45.4035 C.3       10 UNK        -0.0849 
      7 S7         15.6970  -27.9991  -46.3218 S.3       10 UNK        -0.2776 
      8 C8         15.6012  -29.7199  -45.7039 C.3       10 UNK         0.0316 
      9 C9         16.9536  -30.4202  -45.5744 C.ar      10 UNK        -0.0863 
     10 C10        17.2363  -31.1606  -44.4221 C.ar      10 UNK        -0.1009 
     11 C11        18.4879  -31.7572  -44.2448 C.ar      10 UNK        -0.0712 
     12 C12        19.4644  -31.6140  -45.2329 C.ar      10 UNK        -0.0894 
     13 C13        19.2013  -30.8613  -46.3826 C.ar      10 UNK        -0.0745 
     14 C14        17.9345  -30.3004  -46.5660 C.ar      10 UNK        -0.0972 
     15 C15        20.3177  -30.5665  -47.3750 C.3       10 UNK         0.0209 
     16 S16        20.9755  -28.8733  -47.1589 S.3       10 UNK        -0.2568 
     17 C17        21.3378  -28.8657  -45.3700 C.3       10 UNK        -0.0983 
     18 CA         21.9192  -27.5445  -44.8156 C.3       3 UNK         0.0876 
     19 N          21.0906  -26.3949  -45.1841 N.am      3 UNK        -0.4424 
     20 C          21.3832  -25.1046  -44.9755 C.2       2 UNK         0.4918 
     21 O          22.4518  -24.7121  -44.5085 O.2       2 UNK        -0.4875 
     22 CA         20.2897  -24.0755  -45.3305 C.3       2 UNK         0.0481 
     23 CB         20.6674  -23.3144  -46.6115 C.3       2 UNK        -0.1831 
     24 N          18.9468  -24.6518  -45.4925 N.am      2 UNK        -0.4498 
     25 C          18.2309  -25.2341  -44.5188 C.2       1 UNK         0.5027 
     26 O          18.6269  -25.3526  -43.3571 O.2       1 UNK        -0.4969 
     27 C          22.0927  -27.7087  -43.2889 C.2       3 UNK         0.5005 
     28 O          23.0158  -28.4111  -42.8757 O.2       3 UNK        -0.5279 
     29 N          21.1925  -27.1246  -42.4803 N.am      4 UNK        -0.4463 
     30 CA         21.1500  -27.2632  -41.0221 C.3       4 UNK         0.0283 
     31 CB         20.0120  -26.3988  -40.4577 C.3       4 UNK        -0.1875 
     32 C          22.4895  -26.9134  -40.3499 C.2       4 UNK         0.4949 
     33 O          23.0044  -25.8126  -40.5495 O.2       4 UNK        -0.5039 
     34 N          23.0226  -27.8848  -39.5984 N.am      5 UNK        -0.4663 
     35 CA         24.3095  -27.9020  -38.8872 C.3       5 UNK         0.0242 
     36 CB         24.4868  -26.6752  -37.9676 C.3       5 UNK        -0.1982 
     37 C          25.5423  -28.1398  -39.7816 C.2       5 UNK         0.5017 
     38 O          26.6220  -28.3708  -39.2347 O.2       5 UNK        -0.5012 
     39 N          25.3802  -28.1319  -41.1124 N.am      6 UNK        -0.4439 
     40 CA         26.3738  -28.6454  -42.0596 C.3       6 UNK         0.0297 
     41 CB         26.3293  -27.8423  -43.3708 C.3       6 UNK        -0.2006 
     42 C          26.1126  -30.1400  -42.3032 C.2       6 UNK         0.4892 
     43 O          27.0396  -30.9460  -42.2131 O.2       6 UNK        -0.5089 
     44 N          24.8422  -30.4793  -42.5568 N.am      7 UNK        -0.4243 
     45 CA         24.3072  -31.8371  -42.5386 C.3       7 UNK         0.0196 
     46 CB         23.0356  -31.8768  -43.4041 C.3       7 UNK        -0.2007 
     47 C          23.9927  -32.2741  -41.0984 C.2       7 UNK         0.5020 
     48 O          23.9040  -31.4392  -40.1928 O.2       7 UNK        -0.5147 
     49 N          23.7786  -33.5850  -40.9233 N.am      8 UNK        -0.4734 
     50 CA         23.4925  -34.2421  -39.6401 C.3       8 UNK         0.0238 
     51 CB         23.4262  -35.7627  -39.8596 C.3       8 UNK        -0.1912 
     52 C          22.2231  -33.7494  -38.9180 C.2       8 UNK         0.5038 
     53 O          22.1198  -33.9351  -37.7046 O.2       8 UNK        -0.5046 
     54 N          21.2973  -33.1254  -39.6581 N.am      9 UNK        -0.4200 
     55 CA         20.1247  -32.4260  -39.1155 C.3       9 UNK         0.0839 
     56 C          20.4367  -31.0747  -38.4040 C.2       9 UNK         0.5513 
     57 N          21.6574  -30.5511  -38.4514 N.am      9 UNK        -0.7519 
     58 O          19.5561  -30.5043  -37.7657 O.2       9 UNK        -0.4960 
     59 C59        18.9867  -32.3051  -40.1614 C.3       10 UNK        -0.0876 
     60 S60        19.4454  -31.4020  -41.6837 S.3       10 UNK        -0.2414 
     61 C61        18.7905  -32.5189  -42.9647 C.3       10 UNK         0.0169 
     62 H62        14.8626  -22.5940  -43.5872 H         1 UNK         0.0903 
     63 H63        16.5831  -22.9578  -43.6287 H         1 UNK         0.0903 
     64 H64        15.5520  -23.3262  -45.0244 H         1 UNK         0.0903 
     65 H65        15.6729  -26.6776  -43.4408 H         1 UNK         0.3096 
     66 H66        16.4998  -25.2822  -45.7934 H         1 UNK         0.1121 
     67 H67        17.9762  -27.3795  -46.0729 H         1 UNK         0.0849 
     68 H68        17.3527  -27.9397  -44.5439 H         1 UNK         0.0849 
     69 H69        15.0907  -29.7011  -44.7397 H         1 UNK         0.0865 
     70 H70        14.9664  -30.3007  -46.3742 H         1 UNK         0.0865 
     71 H71        16.4902  -31.2537  -43.6445 H         1 UNK         0.1346 
     72 H72        20.4460  -32.0410  -45.0802 H         1 UNK         0.1412 
     73 H73        17.7372  -29.7107  -47.4508 H         1 UNK         0.1426 
     74 H74        19.9459  -30.6801  -48.3943 H         1 UNK         0.0716 
     75 H75        21.1323  -31.2836  -47.2617 H         1 UNK         0.0716 
     76 H76        22.0188  -29.6938  -45.1689 H         1 UNK         0.0695 
     77 H77        20.4112  -29.0898  -44.8386 H         1 UNK         0.0695 
     78 H78        22.9124  -27.3906  -45.2426 H         1 UNK         0.0983 
     79 H79        20.2117  -26.6171  -45.6242 H         1 UNK         0.3095 
     80 H80        20.2449  -23.3577  -44.5089 H         1 UNK         0.0454 
     81 H81        20.7135  -23.9765  -47.4770 H         1 UNK         0.0851 
     82 H82        21.6460  -22.8423  -46.5115 H         1 UNK         0.0851 
     83 H83        19.9512  -22.5222  -46.8302 H         1 UNK         0.0851 
     84 H84        18.5578  -24.6079  -46.4244 H         1 UNK         0.2976 
     85 H85        20.4684  -26.5513  -42.8956 H         1 UNK         0.3116 
     86 H86        20.9120  -28.3085  -40.8117 H         1 UNK         0.0646 
     87 H87        19.0454  -26.7009  -40.8616 H         1 UNK         0.0847 
     88 H88        20.1561  -25.3428  -40.6901 H         1 UNK         0.0847 
     89 H89        19.9522  -26.4907  -39.3724 H         1 UNK         0.0847 
     90 H90        22.5236  -28.7654  -39.5747 H         1 UNK         0.3040 
     91 H91        24.2609  -28.7792  -38.2397 H         1 UNK         0.1015 
     92 H92        24.6459  -25.7579  -38.5347 H         1 UNK         0.0786 
     93 H93        25.3529  -26.8012  -37.3167 H         1 UNK         0.0786 
     94 H94        23.6185  -26.5297  -37.3251 H         1 UNK         0.0786 
     95 H95        24.4505  -27.9644  -41.4830 H         1 UNK         0.3172 
     96 H96        27.3771  -28.5382  -41.6418 H         1 UNK         0.0595 
     97 H97        25.3719  -27.9342  -43.8828 H         1 UNK         0.0839 
     98 H98        27.0987  -28.1895  -44.0615 H         1 UNK         0.0839 
     99 H99        26.5103  -26.7826  -43.1906 H         1 UNK         0.0839 
    100 H100       24.1493  -29.7337  -42.6102 H         1 UNK         0.2998 
    101 H101       25.0475  -32.5216  -42.9584 H         1 UNK         0.0822 
    102 H102       23.2578  -31.6078  -44.4366 H         1 UNK         0.0787 
    103 H103       22.5934  -32.8735  -43.4219 H         1 UNK         0.0787 
    104 H104       22.2745  -31.1883  -43.0338 H         1 UNK         0.0787 
    105 H105       23.8534  -34.1934  -41.7266 H         1 UNK         0.3055 
    106 H106       24.3312  -34.0284  -38.9737 H         1 UNK         0.1106 
    107 H107       22.6225  -36.0371  -40.5440 H         1 UNK         0.0828 
    108 H108       23.2459  -36.2866  -38.9196 H         1 UNK         0.0828 
    109 H109       24.3617  -36.1480  -40.2657 H         1 UNK         0.0828 
    110 H110       21.4739  -32.9954  -40.6426 H         1 UNK         0.2931 
    111 H111       19.7286  -33.0641  -38.3230 H         1 UNK         0.0412 
    112 H112       22.4032  -31.0123  -38.9637 H         1 UNK         0.3472 
    113 H113       21.8418  -29.7304  -37.8982 H         1 UNK         0.3472 
    114 H114       18.1133  -31.8182  -39.7234 H         1 UNK         0.0970 
    115 H115       18.6518  -33.3093  -40.4247 H         1 UNK         0.0970 
    116 H116       19.5102  -33.3173  -43.1517 H         1 UNK         0.0612 
    117 H117       17.8775  -32.9994  -42.6096 H         1 UNK         0.0612 
@<TRIPOS>BOND
     1    1    2 1    
     2    1   62 1    
     3    1   63 1    
     4    1   64 1    
     5    2    3 2    
     6    2    4 am   BACKBONE|DICT|INTERRES
     7    4    5 1    
     8    4   65 1    
     9    5    6 1    
    10    5   25 1    
    11    5   66 1    
    12    6    7 1    
    13    6   67 1    
    14    6   68 1    
    15    7    8 1    
    16    8    9 1    
    17    8   69 1    
    18    8   70 1    
    19    9   10 ar   
    20    9   14 ar   
    21   10   11 ar   
    22   10   71 1    
    23   11   12 ar   
    24   11   61 1    
    25   12   13 ar   
    26   12   72 1    
    27   13   14 ar   
    28   13   15 1    
    29   14   73 1    
    30   15   16 1    
    31   15   74 1    
    32   15   75 1    
    33   16   17 1    
    34   17   18 1    
    35   17   76 1    
    36   17   77 1    
    37   18   19 1    
    38   18   27 1    
    39   18   78 1    
    40   19   20 am   BACKBONE|DICT|INTERRES
    41   19   79 1    
    42   20   21 2    
    43   20   22 1    
    44   22   23 1    
    45   22   24 1    
    46   22   80 1    
    47   23   81 1    
    48   23   82 1    
    49   23   83 1    
    50   24   25 am   BACKBONE|DICT|INTERRES
    51   24   84 1    
    52   25   26 2    
    53   27   28 2    
    54   27   29 am   BACKBONE|DICT|INTERRES
    55   29   30 1    
    56   29   85 1    
    57   30   31 1    
    58   30   32 1    
    59   30   86 1    
    60   31   87 1    
    61   31   88 1    
    62   31   89 1    
    63   32   33 2    
    64   32   34 am   BACKBONE|DICT|INTERRES
    65   34   35 1    
    66   34   90 1    
    67   35   36 1    
    68   35   37 1    
    69   35   91 1    
    70   36   92 1    
    71   36   93 1    
    72   36   94 1    
    73   37   38 2    
    74   37   39 am   BACKBONE|DICT|INTERRES
    75   39   40 1    
    76   39   95 1    
    77   40   41 1    
    78   40   42 1    
    79   40   96 1    
    80   41   97 1    
    81   41   98 1    
    82   41   99 1    
    83   42   43 2    
    84   42   44 am   BACKBONE|DICT|INTERRES
    85   44   45 1    
    86   44  100 1    
    87   45   46 1    
    88   45   47 1    
    89   45  101 1    
    90   46  102 1    
    91   46  103 1    
    92   46  104 1    
    93   47   48 2    
    94   47   49 am   BACKBONE|DICT|INTERRES
    95   49   50 1    
    96   49  105 1    
    97   50   51 1    
    98   50   52 1    
    99   50  106 1    
   100   51  107 1    
   101   51  108 1    
   102   51  109 1    
   103   52   53 2    
   104   52   54 am   BACKBONE|DICT|INTERRES
   105   54   55 1    
   106   54  110 1    
   107   55   56 1    
   108   55   59 1    
   109   55  111 1    
   110   56   57 am   BACKBONE|DICT|INTERRES
   111   56   58 2    
   112   57  112 1    
   113   57  113 1    
   114   59   60 1    
   115   59  114 1    
   116   59  115 1    
   117   60   61 1    
   118   61  116 1    
   119   61  117 1    
@<TRIPOS>SUBSTRUCTURE
     1 UNK         1 GROUP             0       ****    0 ROOT    
