@<TRIPOS>MOLECULE
3R8
117   119    1
SMALL
USER_CHARGES


@<TRIPOS>ATOM
      1 CA         19.1823  -28.6590  -50.5743 C.3       0 UNK        -0.2013 
      2 C          19.0115  -28.6089  -49.0632 C.2       0 UNK         0.4866 
      3 O          19.6875  -29.3466  -48.3463 O.2       0 UNK        -0.5176 
      4 N          18.1073  -27.7506  -48.5745 N.am      1 UNK        -0.4884 
      5 CA         17.8620  -27.5203  -47.1486 C.3       1 UNK         0.0853 
      6 C6         16.4977  -26.8165  -46.9350 C.3       10 UNK        -0.0849 
      7 S7         16.0537  -26.5160  -45.1866 S.3       10 UNK        -0.2776 
      8 C8         15.1951  -28.0524  -44.7218 C.3       10 UNK         0.0316 
      9 C9         16.0185  -28.8788  -43.7438 C.ar      10 UNK        -0.0863 
     10 C10        16.6841  -30.0329  -44.1675 C.ar      10 UNK        -0.1009 
     11 C11        17.3897  -30.8212  -43.2520 C.ar      10 UNK        -0.0712 
     12 C12        17.4347  -30.4424  -41.9054 C.ar      10 UNK        -0.0894 
     13 C13        16.7800  -29.2849  -41.4703 C.ar      10 UNK        -0.0745 
     14 C14        16.0754  -28.5087  -42.3963 C.ar      10 UNK        -0.0972 
     15 C15        16.7781  -28.8983  -39.9943 C.3       10 UNK         0.0209 
     16 S16        18.4332  -28.5136  -39.3323 S.3       10 UNK        -0.2568 
     17 C17        18.9014  -27.0183  -40.2688 C.3       10 UNK        -0.0983 
     18 CA         20.3914  -27.0800  -40.7125 C.3       3 UNK         0.0876 
     19 N          20.6007  -26.5677  -42.0651 N.am      3 UNK        -0.4424 
     20 C          20.3746  -27.2975  -43.1603 C.2       2 UNK         0.4918 
     21 O          20.0385  -28.4825  -43.1313 O.2       2 UNK        -0.4875 
     22 CA         20.5165  -26.6027  -44.5179 C.3       2 UNK         0.0481 
     23 CB         21.9273  -26.7808  -45.1036 C.3       2 UNK        -0.1831 
     24 N          19.5208  -27.2174  -45.3848 N.am      2 UNK        -0.4498 
     25 C          19.0342  -26.7313  -46.5278 C.2       1 UNK         0.5027 
     26 O          19.4402  -25.7016  -47.0736 O.2       1 UNK        -0.4969 
     27 C          21.3670  -26.4189  -39.7248 C.2       3 UNK         0.5005 
     28 O          22.2781  -25.6988  -40.1454 O.2       3 UNK        -0.5279 
     29 N          21.1766  -26.7075  -38.4286 N.am      4 UNK        -0.4463 
     30 CA         22.0242  -26.3138  -37.2986 C.3       4 UNK         0.0283 
     31 CB         21.9466  -24.7884  -37.0569 C.3       4 UNK        -0.1875 
     32 C          23.4518  -26.8622  -37.4796 C.2       4 UNK         0.4949 
     33 O          23.6210  -28.0807  -37.5290 O.2       4 UNK        -0.5039 
     34 N          24.4443  -25.9749  -37.6200 N.am      5 UNK        -0.4663 
     35 CA         25.8395  -26.3264  -37.9010 C.3       5 UNK         0.0242 
     36 CB         26.7180  -25.0810  -37.6976 C.3       5 UNK        -0.1982 
     37 C          26.0628  -26.9178  -39.3072 C.2       5 UNK         0.5017 
     38 O          27.0855  -27.5693  -39.5209 O.2       5 UNK        -0.5012 
     39 N          25.1204  -26.6867  -40.2321 N.am      6 UNK        -0.4439 
     40 CA         25.1693  -27.1394  -41.6228 C.3       6 UNK         0.0297 
     41 CB         24.9051  -25.9312  -42.5396 C.3       6 UNK        -0.2006 
     42 C          24.1827  -28.2895  -41.8984 C.2       6 UNK         0.4892 
     43 O          23.8437  -28.5171  -43.0599 O.2       6 UNK        -0.5089 
     44 N          23.7383  -29.0070  -40.8542 N.am      7 UNK        -0.4243 
     45 CA         22.7850  -30.1237  -40.9205 C.3       7 UNK         0.0196 
     46 CB         22.1998  -30.3691  -39.5161 C.3       7 UNK        -0.2007 
     47 C          23.3688  -31.4132  -41.5352 C.2       7 UNK         0.5020 
     48 O          23.2432  -32.4917  -40.9512 O.2       7 UNK        -0.5147 
     49 N          23.9592  -31.3073  -42.7308 N.am      8 UNK        -0.4734 
     50 CA         24.5228  -32.4037  -43.5293 C.3       8 UNK         0.0238 
     51 CB         25.5443  -31.8142  -44.5199 C.3       8 UNK        -0.1912 
     52 C          23.4406  -33.2557  -44.2307 C.2       8 UNK         0.5038 
     53 O          23.5950  -33.6167  -45.3991 O.2       8 UNK        -0.5046 
     54 N          22.3601  -33.5477  -43.5045 N.am      9 UNK        -0.4200 
     55 CA         21.1627  -34.2681  -43.9485 C.3       9 UNK         0.0839 
     56 C          20.3717  -34.9225  -42.7795 C.2       9 UNK         0.5513 
     57 N          20.8445  -34.8802  -41.5373 N.am      9 UNK        -0.7519 
     58 O          19.3145  -35.5057  -43.0043 O.2       9 UNK        -0.4960 
     59 C59        20.2698  -33.4173  -44.8977 C.3       10 UNK        -0.0876 
     60 S60        19.7918  -31.7868  -44.2209 S.3       10 UNK        -0.2414 
     61 C61        18.0743  -32.0986  -43.7155 C.3       10 UNK         0.0169 
     62 H62        18.5146  -27.9649  -51.0844 H         1 UNK         0.0903 
     63 H63        20.2068  -28.4041  -50.8441 H         1 UNK         0.0903 
     64 H64        18.9727  -29.6631  -50.9424 H         1 UNK         0.0903 
     65 H65        17.6058  -27.1459  -49.2098 H         1 UNK         0.3096 
     66 H66        17.8103  -28.4978  -46.6631 H         1 UNK         0.1121 
     67 H67        16.4965  -25.8491  -47.4412 H         1 UNK         0.0849 
     68 H68        15.7015  -27.3924  -47.4093 H         1 UNK         0.0849 
     69 H69        14.2424  -27.7923  -44.2578 H         1 UNK         0.0865 
     70 H70        14.9432  -28.6400  -45.6057 H         1 UNK         0.0865 
     71 H71        16.6394  -30.3313  -45.2060 H         1 UNK         0.1346 
     72 H72        17.9759  -31.0505  -41.1936 H         1 UNK         0.1412 
     73 H73        15.5541  -27.6197  -42.0677 H         1 UNK         0.1426 
     74 H74        16.3584  -29.7242  -39.4185 H         1 UNK         0.0716 
     75 H75        16.1242  -28.0430  -39.8167 H         1 UNK         0.0716 
     76 H76        18.2502  -26.9465  -41.1407 H         1 UNK         0.0695 
     77 H77        18.6835  -26.1286  -39.6749 H         1 UNK         0.0695 
     78 H78        20.7011  -28.1244  -40.7304 H         1 UNK         0.0983 
     79 H79        20.9536  -25.6222  -42.1269 H         1 UNK         0.3095 
     80 H80        20.2887  -25.5408  -44.4060 H         1 UNK         0.0454 
     81 H81        22.6760  -26.3300  -44.4536 H         1 UNK         0.0851 
     82 H82        22.0205  -26.3078  -46.0809 H         1 UNK         0.0851 
     83 H83        22.1842  -27.8352  -45.2147 H         1 UNK         0.0851 
     84 H84        19.1286  -28.0647  -44.9875 H         1 UNK         0.2976 
     85 H85        20.4099  -27.3280  -38.2004 H         1 UNK         0.3116 
     86 H86        21.6174  -26.8089  -36.4156 H         1 UNK         0.0646 
     87 H87        22.5276  -24.4979  -36.1806 H         1 UNK         0.0847 
     88 H88        22.3112  -24.2097  -37.9061 H         1 UNK         0.0847 
     89 H89        20.9185  -24.4778  -36.8704 H         1 UNK         0.0847 
     90 H90        24.2183  -24.9909  -37.5886 H         1 UNK         0.3040 
     91 H91        26.1490  -27.0867  -37.1802 H         1 UNK         0.1015 
     92 H92        27.7706  -25.3134  -37.8661 H         1 UNK         0.0786 
     93 H93        26.6330  -24.6961  -36.6811 H         1 UNK         0.0786 
     94 H94        26.4476  -24.2791  -38.3858 H         1 UNK         0.0786 
     95 H95        24.2830  -26.1761  -39.9652 H         1 UNK         0.3172 
     96 H96        26.1634  -27.5222  -41.8609 H         1 UNK         0.0595 
     97 H97        23.8986  -25.5346  -42.4023 H         1 UNK         0.0839 
     98 H98        25.0128  -26.2025  -43.5905 H         1 UNK         0.0839 
     99 H99        25.6116  -25.1243  -42.3447 H         1 UNK         0.0839 
    100 H100       24.0869  -28.7718  -39.9345 H         1 UNK         0.2998 
    101 H101       21.9646  -29.8290  -41.5777 H         1 UNK         0.0822 
    102 H102       21.4207  -31.1323  -39.5436 H         1 UNK         0.0787 
    103 H103       21.7488  -29.4706  -39.0993 H         1 UNK         0.0787 
    104 H104       22.9656  -30.7070  -38.8167 H         1 UNK         0.0787 
    105 H105       23.9765  -30.3784  -43.1472 H         1 UNK         0.3055 
    106 H106       25.0603  -33.0763  -42.8571 H         1 UNK         0.1106 
    107 H107       25.0672  -31.1455  -45.2376 H         1 UNK         0.0828 
    108 H108       26.3206  -31.2510  -44.0017 H         1 UNK         0.0828 
    109 H109       26.0434  -32.6013  -45.0867 H         1 UNK         0.0828 
    110 H110       22.3389  -33.2056  -42.5511 H         1 UNK         0.2931 
    111 H111       21.5181  -35.1212  -44.5293 H         1 UNK         0.0412 
    112 H112       20.3114  -35.3222  -40.8048 H         1 UNK         0.3472 
    113 H113       21.7236  -34.4409  -41.3120 H         1 UNK         0.3472 
    114 H114       19.3810  -33.9736  -45.2003 H         1 UNK         0.0970 
    115 H115       20.8133  -33.2317  -45.8251 H         1 UNK         0.0970 
    116 H116       18.0616  -32.8419  -42.9171 H         1 UNK         0.0612 
    117 H117       17.5225  -32.5319  -44.5511 H         1 UNK         0.0612 
@<TRIPOS>BOND
     1    1    2 1    
     2    1   62 1    
     3    1   63 1    
     4    1   64 1    
     5    2    3 2    
     6    2    4 am   BACKBONE|DICT|INTERRES
     7    4    5 1    
     8    4   65 1    
     9    5    6 1    
    10    5   25 1    
    11    5   66 1    
    12    6    7 1    
    13    6   67 1    
    14    6   68 1    
    15    7    8 1    
    16    8    9 1    
    17    8   69 1    
    18    8   70 1    
    19    9   10 ar   
    20    9   14 ar   
    21   10   11 ar   
    22   10   71 1    
    23   11   12 ar   
    24   11   61 1    
    25   12   13 ar   
    26   12   72 1    
    27   13   14 ar   
    28   13   15 1    
    29   14   73 1    
    30   15   16 1    
    31   15   74 1    
    32   15   75 1    
    33   16   17 1    
    34   17   18 1    
    35   17   76 1    
    36   17   77 1    
    37   18   19 1    
    38   18   27 1    
    39   18   78 1    
    40   19   20 am   BACKBONE|DICT|INTERRES
    41   19   79 1    
    42   20   21 2    
    43   20   22 1    
    44   22   23 1    
    45   22   24 1    
    46   22   80 1    
    47   23   81 1    
    48   23   82 1    
    49   23   83 1    
    50   24   25 am   BACKBONE|DICT|INTERRES
    51   24   84 1    
    52   25   26 2    
    53   27   28 2    
    54   27   29 am   BACKBONE|DICT|INTERRES
    55   29   30 1    
    56   29   85 1    
    57   30   31 1    
    58   30   32 1    
    59   30   86 1    
    60   31   87 1    
    61   31   88 1    
    62   31   89 1    
    63   32   33 2    
    64   32   34 am   BACKBONE|DICT|INTERRES
    65   34   35 1    
    66   34   90 1    
    67   35   36 1    
    68   35   37 1    
    69   35   91 1    
    70   36   92 1    
    71   36   93 1    
    72   36   94 1    
    73   37   38 2    
    74   37   39 am   BACKBONE|DICT|INTERRES
    75   39   40 1    
    76   39   95 1    
    77   40   41 1    
    78   40   42 1    
    79   40   96 1    
    80   41   97 1    
    81   41   98 1    
    82   41   99 1    
    83   42   43 2    
    84   42   44 am   BACKBONE|DICT|INTERRES
    85   44   45 1    
    86   44  100 1    
    87   45   46 1    
    88   45   47 1    
    89   45  101 1    
    90   46  102 1    
    91   46  103 1    
    92   46  104 1    
    93   47   48 2    
    94   47   49 am   BACKBONE|DICT|INTERRES
    95   49   50 1    
    96   49  105 1    
    97   50   51 1    
    98   50   52 1    
    99   50  106 1    
   100   51  107 1    
   101   51  108 1    
   102   51  109 1    
   103   52   53 2    
   104   52   54 am   BACKBONE|DICT|INTERRES
   105   54   55 1    
   106   54  110 1    
   107   55   56 1    
   108   55   59 1    
   109   55  111 1    
   110   56   57 am   BACKBONE|DICT|INTERRES
   111   56   58 2    
   112   57  112 1    
   113   57  113 1    
   114   59   60 1    
   115   59  114 1    
   116   59  115 1    
   117   60   61 1    
   118   61  116 1    
   119   61  117 1    
@<TRIPOS>SUBSTRUCTURE
     1 UNK         1 GROUP             0       ****    0 ROOT    
