@<TRIPOS>MOLECULE
3R8
117   119    1
SMALL
USER_CHARGES


@<TRIPOS>ATOM
      1 CA         20.8456  -26.1857  -48.8688 C.3       0 UNK        -0.2013 
      2 C          20.4556  -26.6449  -47.4725 C.2       0 UNK         0.4866 
      3 O          21.3151  -27.0865  -46.7105 O.2       0 UNK        -0.5176 
      4 N          19.1686  -26.5299  -47.1220 N.am      1 UNK        -0.4884 
      5 CA         18.5644  -26.9421  -45.8451 C.3       1 UNK         0.0853 
      6 C6         17.0374  -27.1659  -46.0085 C.3       10 UNK        -0.0849 
      7 S7         16.6648  -28.5710  -47.1162 S.3       10 UNK        -0.2776 
      8 C8         15.7164  -29.6892  -46.0309 C.3       10 UNK         0.0316 
      9 C9         16.5853  -30.3351  -44.9594 C.ar      10 UNK        -0.0863 
     10 C10        17.2889  -31.5119  -45.2340 C.ar      10 UNK        -0.1009 
     11 C11        18.0624  -32.1207  -44.2414 C.ar      10 UNK        -0.0712 
     12 C12        18.1538  -31.5267  -42.9791 C.ar      10 UNK        -0.0894 
     13 C13        17.4696  -30.3426  -42.6908 C.ar      10 UNK        -0.0745 
     14 C14        16.6635  -29.7704  -43.6829 C.ar      10 UNK        -0.0972 
     15 C15        17.6090  -29.7270  -41.2979 C.3       10 UNK         0.0209 
     16 S16        17.3930  -27.9137  -41.2606 S.3       10 UNK        -0.2568 
     17 C17        18.5293  -27.4303  -39.9209 C.3       10 UNK        -0.0983 
     18 CA         19.9548  -27.1476  -40.4522 C.3       3 UNK         0.0876 
     19 N          19.9599  -26.1488  -41.5268 N.am      3 UNK        -0.4424 
     20 C          21.0282  -25.7596  -42.2313 C.2       2 UNK         0.4918 
     21 O          22.1755  -26.1596  -42.0215 O.2       2 UNK        -0.4875 
     22 CA         20.7432  -24.8467  -43.4332 C.3       2 UNK         0.0481 
     23 CB         22.0058  -24.1295  -43.9425 C.3       2 UNK        -0.1831 
     24 N          20.1918  -25.6558  -44.5187 N.am      2 UNK        -0.4498 
     25 C          18.9008  -25.9635  -44.6915 C.2       1 UNK         0.5027 
     26 O          18.0044  -25.5038  -43.9813 O.2       1 UNK        -0.4969 
     27 C          20.9044  -26.7666  -39.3022 C.2       3 UNK         0.5005 
     28 O          20.8544  -25.6310  -38.8242 O.2       3 UNK        -0.5279 
     29 N          21.7720  -27.7109  -38.9124 N.am      4 UNK        -0.4463 
     30 CA         22.8357  -27.6318  -37.9005 C.3       4 UNK         0.0283 
     31 CB         22.2918  -27.2249  -36.5169 C.3       4 UNK        -0.1875 
     32 C          24.0352  -26.7586  -38.3119 C.2       4 UNK         0.4949 
     33 O          25.1612  -27.0783  -37.9306 O.2       4 UNK        -0.5039 
     34 N          23.7940  -25.6970  -39.0915 N.am      5 UNK        -0.4663 
     35 CA         24.8186  -24.8304  -39.6762 C.3       5 UNK         0.0242 
     36 CB         24.1535  -23.5642  -40.2376 C.3       5 UNK        -0.1982 
     37 C          25.6454  -25.5412  -40.7613 C.2       5 UNK         0.5017 
     38 O          26.8537  -25.3150  -40.8388 O.2       5 UNK        -0.5012 
     39 N          24.9888  -26.3921  -41.5603 N.am      6 UNK        -0.4439 
     40 CA         25.6140  -27.2151  -42.5951 C.3       6 UNK         0.0297 
     41 CB         25.7356  -26.4259  -43.9108 C.3       6 UNK        -0.2006 
     42 C          24.8646  -28.5367  -42.8130 C.2       6 UNK         0.4892 
     43 O          25.5168  -29.5740  -42.9393 O.2       6 UNK        -0.5089 
     44 N          23.5259  -28.4910  -42.8684 N.am      7 UNK        -0.4243 
     45 CA         22.6809  -29.6661  -43.0841 C.3       7 UNK         0.0196 
     46 CB         21.3474  -29.2418  -43.7222 C.3       7 UNK        -0.2007 
     47 C          22.4365  -30.4226  -41.7722 C.2       7 UNK         0.5020 
     48 O          22.2703  -29.8029  -40.7191 O.2       7 UNK        -0.5147 
     49 N          22.3683  -31.7497  -41.8787 N.am      8 UNK        -0.4734 
     50 CA         22.0085  -32.6701  -40.8040 C.3       8 UNK         0.0238 
     51 CB         23.2534  -33.1082  -40.0102 C.3       8 UNK        -0.1912 
     52 C          21.2601  -33.8395  -41.4450 C.2       8 UNK         0.5038 
     53 O          20.0638  -33.9840  -41.1976 O.2       8 UNK        -0.5046 
     54 N          21.9669  -34.5679  -42.3275 N.am      9 UNK        -0.4200 
     55 CA         21.4514  -35.5214  -43.3322 C.3       9 UNK         0.0839 
     56 C          20.3578  -36.5283  -42.8564 C.2       9 UNK         0.5513 
     57 N          20.4516  -37.0398  -41.6351 N.am      9 UNK        -0.7519 
     58 O          19.4405  -36.8766  -43.5955 O.2       9 UNK        -0.4960 
     59 C59        21.1980  -34.8688  -44.7353 C.3       10 UNK        -0.0876 
     60 S60        20.5646  -33.1533  -44.7531 S.3       10 UNK        -0.2414 
     61 C61        18.7870  -33.4294  -44.5153 C.3       10 UNK         0.0169 
     62 H62        19.9882  -25.8187  -49.4327 H         1 UNK         0.0903 
     63 H63        21.5808  -25.3838  -48.8078 H         1 UNK         0.0903 
     64 H64        21.2881  -27.0122  -49.4242 H         1 UNK         0.0903 
     65 H65        18.5173  -26.1461  -47.7923 H         1 UNK         0.3096 
     66 H66        19.0047  -27.8993  -45.5545 H         1 UNK         0.1121 
     67 H67        16.5605  -27.3382  -45.0444 H         1 UNK         0.0849 
     68 H68        16.5615  -26.2698  -46.4109 H         1 UNK         0.0849 
     69 H69        14.8881  -29.1428  -45.5769 H         1 UNK         0.0865 
     70 H70        15.2590  -30.4665  -46.6450 H         1 UNK         0.0865 
     71 H71        17.2229  -31.9601  -46.2161 H         1 UNK         0.1346 
     72 H72        18.7624  -31.9934  -42.2174 H         1 UNK         0.1412 
     73 H73        16.0955  -28.8778  -43.4651 H         1 UNK         0.1426 
     74 H74        18.5951  -29.9715  -40.8992 H         1 UNK         0.0716 
     75 H75        16.8795  -30.1851  -40.6291 H         1 UNK         0.0716 
     76 H76        18.5419  -28.2144  -39.1611 H         1 UNK         0.0695 
     77 H77        18.1192  -26.5419  -39.4365 H         1 UNK         0.0695 
     78 H78        20.3243  -28.0728  -40.8938 H         1 UNK         0.0983 
     79 H79        19.0511  -25.8052  -41.8074 H         1 UNK         0.3095 
     80 H80        20.0222  -24.0858  -43.1272 H         1 UNK         0.0454 
     81 H81        22.7645  -24.8339  -44.2832 H         1 UNK         0.0851 
     82 H82        22.4527  -23.5183  -43.1587 H         1 UNK         0.0851 
     83 H83        21.7726  -23.4655  -44.7748 H         1 UNK         0.0851 
     84 H84        20.8565  -26.0961  -45.1506 H         1 UNK         0.2976 
     85 H85        21.8047  -28.5675  -39.4677 H         1 UNK         0.3116 
     86 H86        23.2168  -28.6506  -37.8120 H         1 UNK         0.0646 
     87 H87        21.9366  -26.1943  -36.5017 H         1 UNK         0.0847 
     88 H88        23.0704  -27.3059  -35.7574 H         1 UNK         0.0847 
     89 H89        21.4693  -27.8695  -36.2076 H         1 UNK         0.0847 
     90 H90        22.8251  -25.4887  -39.3089 H         1 UNK         0.3040 
     91 H91        25.5061  -24.5334  -38.8809 H         1 UNK         0.1015 
     92 H92        23.4162  -23.8036  -41.0033 H         1 UNK         0.0786 
     93 H93        24.8925  -22.9008  -40.6892 H         1 UNK         0.0786 
     94 H94        23.6490  -23.0009  -39.4523 H         1 UNK         0.0786 
     95 H95        23.9824  -26.4759  -41.4481 H         1 UNK         0.3172 
     96 H96        26.6207  -27.4809  -42.2647 H         1 UNK         0.0595 
     97 H97        24.7599  -26.1237  -44.2906 H         1 UNK         0.0839 
     98 H98        26.2137  -27.0289  -44.6839 H         1 UNK         0.0839 
     99 H99        26.3391  -25.5273  -43.7825 H         1 UNK         0.0839 
    100 H100       23.0444  -27.6120  -42.7024 H         1 UNK         0.2998 
    101 H101       23.1857  -30.3338  -43.7863 H         1 UNK         0.0822 
    102 H102       20.7745  -28.5752  -43.0812 H         1 UNK         0.0787 
    103 H103       21.5121  -28.7342  -44.6713 H         1 UNK         0.0787 
    104 H104       20.7178  -30.1086  -43.9277 H         1 UNK         0.0787 
    105 H105       22.4366  -32.1620  -42.8001 H         1 UNK         0.3055 
    106 H106       21.3153  -32.1758  -40.1185 H         1 UNK         0.1106 
    107 H107       22.9931  -33.8503  -39.2544 H         1 UNK         0.0828 
    108 H108       24.0210  -33.5437  -40.6502 H         1 UNK         0.0828 
    109 H109       23.7010  -32.2612  -39.4897 H         1 UNK         0.0828 
    110 H110       22.9560  -34.3813  -42.3979 H         1 UNK         0.2931 
    111 H111       22.2987  -36.1895  -43.4944 H         1 UNK         0.0412 
    112 H112       21.1943  -36.7542  -41.0167 H         1 UNK         0.3472 
    113 H113       19.7545  -37.6956  -41.3190 H         1 UNK         0.3472 
    114 H114       22.1512  -34.8299  -45.2646 H         1 UNK         0.0970 
    115 H115       20.5661  -35.4900  -45.3720 H         1 UNK         0.0970 
    116 H116       18.3767  -33.9265  -45.3955 H         1 UNK         0.0612 
    117 H117       18.6328  -34.1066  -43.6742 H         1 UNK         0.0612 
@<TRIPOS>BOND
     1    1    2 1    
     2    1   62 1    
     3    1   63 1    
     4    1   64 1    
     5    2    3 2    
     6    2    4 am   BACKBONE|DICT|INTERRES
     7    4    5 1    
     8    4   65 1    
     9    5    6 1    
    10    5   25 1    
    11    5   66 1    
    12    6    7 1    
    13    6   67 1    
    14    6   68 1    
    15    7    8 1    
    16    8    9 1    
    17    8   69 1    
    18    8   70 1    
    19    9   10 ar   
    20    9   14 ar   
    21   10   11 ar   
    22   10   71 1    
    23   11   12 ar   
    24   11   61 1    
    25   12   13 ar   
    26   12   72 1    
    27   13   14 ar   
    28   13   15 1    
    29   14   73 1    
    30   15   16 1    
    31   15   74 1    
    32   15   75 1    
    33   16   17 1    
    34   17   18 1    
    35   17   76 1    
    36   17   77 1    
    37   18   19 1    
    38   18   27 1    
    39   18   78 1    
    40   19   20 am   BACKBONE|DICT|INTERRES
    41   19   79 1    
    42   20   21 2    
    43   20   22 1    
    44   22   23 1    
    45   22   24 1    
    46   22   80 1    
    47   23   81 1    
    48   23   82 1    
    49   23   83 1    
    50   24   25 am   BACKBONE|DICT|INTERRES
    51   24   84 1    
    52   25   26 2    
    53   27   28 2    
    54   27   29 am   BACKBONE|DICT|INTERRES
    55   29   30 1    
    56   29   85 1    
    57   30   31 1    
    58   30   32 1    
    59   30   86 1    
    60   31   87 1    
    61   31   88 1    
    62   31   89 1    
    63   32   33 2    
    64   32   34 am   BACKBONE|DICT|INTERRES
    65   34   35 1    
    66   34   90 1    
    67   35   36 1    
    68   35   37 1    
    69   35   91 1    
    70   36   92 1    
    71   36   93 1    
    72   36   94 1    
    73   37   38 2    
    74   37   39 am   BACKBONE|DICT|INTERRES
    75   39   40 1    
    76   39   95 1    
    77   40   41 1    
    78   40   42 1    
    79   40   96 1    
    80   41   97 1    
    81   41   98 1    
    82   41   99 1    
    83   42   43 2    
    84   42   44 am   BACKBONE|DICT|INTERRES
    85   44   45 1    
    86   44  100 1    
    87   45   46 1    
    88   45   47 1    
    89   45  101 1    
    90   46  102 1    
    91   46  103 1    
    92   46  104 1    
    93   47   48 2    
    94   47   49 am   BACKBONE|DICT|INTERRES
    95   49   50 1    
    96   49  105 1    
    97   50   51 1    
    98   50   52 1    
    99   50  106 1    
   100   51  107 1    
   101   51  108 1    
   102   51  109 1    
   103   52   53 2    
   104   52   54 am   BACKBONE|DICT|INTERRES
   105   54   55 1    
   106   54  110 1    
   107   55   56 1    
   108   55   59 1    
   109   55  111 1    
   110   56   57 am   BACKBONE|DICT|INTERRES
   111   56   58 2    
   112   57  112 1    
   113   57  113 1    
   114   59   60 1    
   115   59  114 1    
   116   59  115 1    
   117   60   61 1    
   118   61  116 1    
   119   61  117 1    
@<TRIPOS>SUBSTRUCTURE
     1 UNK         1 GROUP             0       ****    0 ROOT    
