@<TRIPOS>MOLECULE
3R8
117   119    1
SMALL
USER_CHARGES


@<TRIPOS>ATOM
      1 CA         14.5122  -23.6692  -47.0541 C.3       0 UNK        -0.2013 
      2 C          15.1094  -24.1813  -45.7520 C.2       0 UNK         0.4866 
      3 O          14.8851  -23.5814  -44.7012 O.2       0 UNK        -0.5176 
      4 N          15.8747  -25.2811  -45.8183 N.am      1 UNK        -0.4884 
      5 CA         16.5358  -25.9486  -44.6849 C.3       1 UNK         0.0853 
      6 C6         15.5200  -26.5008  -43.6426 C.3       10 UNK        -0.0849 
      7 S7         16.1142  -27.9019  -42.6279 S.3       10 UNK        -0.2776 
      8 C8         15.9620  -29.3472  -43.7277 C.3       10 UNK         0.0316 
      9 C9         17.3255  -29.8524  -44.1884 C.ar      10 UNK        -0.0863 
     10 C10        18.0447  -30.7740  -43.4163 C.ar      10 UNK        -0.1009 
     11 C11        19.2711  -31.2776  -43.8687 C.ar      10 UNK        -0.0712 
     12 C12        19.8031  -30.8107  -45.0750 C.ar      10 UNK        -0.0894 
     13 C13        19.0956  -29.8910  -45.8534 C.ar      10 UNK        -0.0745 
     14 C14        17.8488  -29.4374  -45.4151 C.ar      10 UNK        -0.0972 
     15 C15        19.6334  -29.4404  -47.2037 C.3       10 UNK         0.0209 
     16 S16        19.7999  -27.6296  -47.3104 S.3       10 UNK        -0.2568 
     17 C17        21.5190  -27.3395  -46.7555 C.3       10 UNK        -0.0983 
     18 CA         21.6619  -26.5219  -45.4416 C.3       3 UNK         0.0876 
     19 N          20.6779  -25.4416  -45.3530 N.am      3 UNK        -0.4424 
     20 C          20.7397  -24.3582  -44.5690 C.2       2 UNK         0.4918 
     21 O          21.6973  -24.0911  -43.8435 O.2       2 UNK        -0.4875 
     22 CA         19.4924  -23.4520  -44.5664 C.3       2 UNK         0.0481 
     23 CB         19.6651  -22.2957  -45.5631 C.3       2 UNK        -0.1831 
     24 N          18.2590  -24.1878  -44.8796 N.am      2 UNK        -0.4498 
     25 C          17.7111  -25.1296  -44.0936 C.2       1 UNK         0.5027 
     26 O          18.1580  -25.3978  -42.9793 O.2       1 UNK        -0.4969 
     27 C          21.7368  -27.4143  -44.1816 C.2       3 UNK         0.5005 
     28 O          22.6688  -28.2132  -44.0839 O.2       3 UNK        -0.5279 
     29 N          20.8412  -27.2255  -43.1966 N.am      4 UNK        -0.4463 
     30 CA         20.8847  -27.8978  -41.8906 C.3       4 UNK         0.0283 
     31 CB         19.5491  -27.7186  -41.1591 C.3       4 UNK        -0.1875 
     32 C          22.0675  -27.4926  -40.9863 C.2       4 UNK         0.4949 
     33 O          22.2008  -28.0370  -39.8910 O.2       4 UNK        -0.5039 
     34 N          22.9252  -26.5765  -41.4567 N.am      5 UNK        -0.4663 
     35 CA         24.2579  -26.3203  -40.9072 C.3       5 UNK         0.0242 
     36 CB         24.8172  -25.0372  -41.5430 C.3       5 UNK        -0.1982 
     37 C          25.2341  -27.4994  -41.1135 C.2       5 UNK         0.5017 
     38 O          26.2482  -27.5591  -40.4163 O.2       5 UNK        -0.5012 
     39 N          24.9262  -28.4064  -42.0554 N.am      6 UNK        -0.4439 
     40 CA         25.6438  -29.6620  -42.2844 C.3       6 UNK         0.0297 
     41 CB         25.1433  -30.2888  -43.5962 C.3       6 UNK        -0.2006 
     42 C          25.4768  -30.6564  -41.1193 C.2       6 UNK         0.4892 
     43 O          24.5195  -30.5640  -40.3464 O.2       6 UNK        -0.5089 
     44 N          26.4167  -31.6059  -41.0290 N.am      7 UNK        -0.4243 
     45 CA         26.4380  -32.6657  -40.0191 C.3       7 UNK         0.0196 
     46 CB         27.7531  -33.4526  -40.1423 C.3       7 UNK        -0.2007 
     47 C          25.2322  -33.6153  -40.1322 C.2       7 UNK         0.5020 
     48 O          24.7950  -33.9228  -41.2423 O.2       7 UNK        -0.5147 
     49 N          24.7479  -34.0744  -38.9703 N.am      8 UNK        -0.4734 
     50 CA         23.6354  -35.0138  -38.7557 C.3       8 UNK         0.0238 
     51 CB         23.8895  -36.3616  -39.4654 C.3       8 UNK        -0.1912 
     52 C          22.2279  -34.4598  -39.0612 C.2       8 UNK         0.5038 
     53 O          21.2576  -35.1984  -38.8828 O.2       8 UNK        -0.5046 
     54 N          22.1150  -33.1876  -39.4674 N.am      9 UNK        -0.4200 
     55 CA         20.8296  -32.4979  -39.6810 C.3       9 UNK         0.0839 
     56 C          20.1370  -32.0152  -38.3732 C.2       9 UNK         0.5513 
     57 N          20.7825  -32.0675  -37.2137 N.am      9 UNK        -0.7519 
     58 O          18.9835  -31.5953  -38.4108 O.2       9 UNK        -0.4960 
     59 C59        20.9472  -31.3371  -40.7012 C.3       10 UNK        -0.0876 
     60 S60        21.5359  -31.8823  -42.3370 S.3       10 UNK        -0.2414 
     61 C61        19.9772  -32.4013  -43.1191 C.3       10 UNK         0.0169 
     62 H62        13.4246  -23.6578  -46.9880 H         1 UNK         0.0903 
     63 H63        14.8519  -22.6522  -47.2484 H         1 UNK         0.0903 
     64 H64        14.7930  -24.2891  -47.9054 H         1 UNK         0.0903 
     65 H65        16.0173  -25.7202  -46.7186 H         1 UNK         0.3096 
     66 H66        17.0286  -26.8078  -45.1310 H         1 UNK         0.1121 
     67 H67        14.6094  -26.8288  -44.1463 H         1 UNK         0.0849 
     68 H68        15.2048  -25.7028  -42.9682 H         1 UNK         0.0849 
     69 H69        15.4429  -30.1415  -43.1890 H         1 UNK         0.0865 
     70 H70        15.3316  -29.1082  -44.5855 H         1 UNK         0.0865 
     71 H71        17.6292  -31.1285  -42.4828 H         1 UNK         0.1346 
     72 H72        20.7508  -31.1978  -45.4239 H         1 UNK         0.1412 
     73 H73        17.2818  -28.7697  -46.0470 H         1 UNK         0.1426 
     74 H74        18.9358  -29.7670  -47.9761 H         1 UNK         0.0716 
     75 H75        20.5852  -29.9203  -47.4356 H         1 UNK         0.0716 
     76 H76        22.0655  -28.2830  -46.7024 H         1 UNK         0.0695 
     77 H77        22.0038  -26.7837  -47.5595 H         1 UNK         0.0695 
     78 H78        22.6414  -26.0396  -45.4841 H         1 UNK         0.0983 
     79 H79        19.8556  -25.5749  -45.9237 H         1 UNK         0.3095 
     80 H80        19.3911  -23.0288  -43.5649 H         1 UNK         0.0454 
     81 H81        20.5614  -21.7167  -45.3359 H         1 UNK         0.0851 
     82 H82        19.7607  -22.6540  -46.5888 H         1 UNK         0.0851 
     83 H83        18.8199  -21.6083  -45.5240 H         1 UNK         0.0851 
     84 H84        17.8288  -24.0070  -45.7753 H         1 UNK         0.2976 
     85 H85        20.1055  -26.5417  -43.3227 H         1 UNK         0.3116 
     86 H86        21.0062  -28.9605  -42.0968 H         1 UNK         0.0646 
     87 H87        19.5450  -28.2432  -40.2029 H         1 UNK         0.0847 
     88 H88        18.7356  -28.1320  -41.7495 H         1 UNK         0.0847 
     89 H89        19.3319  -26.6695  -40.9580 H         1 UNK         0.0847 
     90 H90        22.7094  -26.1383  -42.3409 H         1 UNK         0.3040 
     91 H91        24.1601  -26.1624  -39.8308 H         1 UNK         0.1015 
     92 H92        24.1664  -24.1833  -41.3529 H         1 UNK         0.0786 
     93 H93        24.9305  -25.1383  -42.6233 H         1 UNK         0.0786 
     94 H94        25.7983  -24.7936  -41.1329 H         1 UNK         0.0786 
     95 H95        24.0691  -28.2835  -42.5855 H         1 UNK         0.3172 
     96 H96        26.7051  -29.4280  -42.3905 H         1 UNK         0.0595 
     97 H97        25.6875  -31.2041  -43.8319 H         1 UNK         0.0839 
     98 H98        25.2728  -29.6085  -44.4381 H         1 UNK         0.0839 
     99 H99        24.0850  -30.5473  -43.5372 H         1 UNK         0.0839 
    100 H100       27.1466  -31.6336  -41.7258 H         1 UNK         0.2998 
    101 H101       26.4133  -32.1826  -39.0397 H         1 UNK         0.0822 
    102 H102       28.6195  -32.8046  -40.0080 H         1 UNK         0.0787 
    103 H103       27.8142  -34.2337  -39.3831 H         1 UNK         0.0787 
    104 H104       27.8423  -33.9378  -41.1153 H         1 UNK         0.0787 
    105 H105       25.1882  -33.7443  -38.1213 H         1 UNK         0.3055 
    106 H106       23.6318  -35.2163  -37.6833 H         1 UNK         0.1106 
    107 H107       23.8241  -36.2706  -40.5498 H         1 UNK         0.0828 
    108 H108       24.8730  -36.7621  -39.2196 H         1 UNK         0.0828 
    109 H109       23.1539  -37.1078  -39.1623 H         1 UNK         0.0828 
    110 H110       22.9510  -32.6412  -39.6202 H         1 UNK         0.2931 
    111 H111       20.1404  -33.2251  -40.1141 H         1 UNK         0.0412 
    112 H112       21.7301  -32.4053  -37.1690 H         1 UNK         0.3472 
    113 H113       20.3171  -31.7559  -36.3754 H         1 UNK         0.3472 
    114 H114       19.9894  -30.8292  -40.8311 H         1 UNK         0.0970 
    115 H115       21.6436  -30.5864  -40.3256 H         1 UNK         0.0970 
    116 H116       19.3176  -32.8453  -42.3725 H         1 UNK         0.0612 
    117 H117       20.2037  -33.2002  -43.8265 H         1 UNK         0.0612 
@<TRIPOS>BOND
     1    1    2 1    
     2    1   62 1    
     3    1   63 1    
     4    1   64 1    
     5    2    3 2    
     6    2    4 am   BACKBONE|DICT|INTERRES
     7    4    5 1    
     8    4   65 1    
     9    5    6 1    
    10    5   25 1    
    11    5   66 1    
    12    6    7 1    
    13    6   67 1    
    14    6   68 1    
    15    7    8 1    
    16    8    9 1    
    17    8   69 1    
    18    8   70 1    
    19    9   10 ar   
    20    9   14 ar   
    21   10   11 ar   
    22   10   71 1    
    23   11   12 ar   
    24   11   61 1    
    25   12   13 ar   
    26   12   72 1    
    27   13   14 ar   
    28   13   15 1    
    29   14   73 1    
    30   15   16 1    
    31   15   74 1    
    32   15   75 1    
    33   16   17 1    
    34   17   18 1    
    35   17   76 1    
    36   17   77 1    
    37   18   19 1    
    38   18   27 1    
    39   18   78 1    
    40   19   20 am   BACKBONE|DICT|INTERRES
    41   19   79 1    
    42   20   21 2    
    43   20   22 1    
    44   22   23 1    
    45   22   24 1    
    46   22   80 1    
    47   23   81 1    
    48   23   82 1    
    49   23   83 1    
    50   24   25 am   BACKBONE|DICT|INTERRES
    51   24   84 1    
    52   25   26 2    
    53   27   28 2    
    54   27   29 am   BACKBONE|DICT|INTERRES
    55   29   30 1    
    56   29   85 1    
    57   30   31 1    
    58   30   32 1    
    59   30   86 1    
    60   31   87 1    
    61   31   88 1    
    62   31   89 1    
    63   32   33 2    
    64   32   34 am   BACKBONE|DICT|INTERRES
    65   34   35 1    
    66   34   90 1    
    67   35   36 1    
    68   35   37 1    
    69   35   91 1    
    70   36   92 1    
    71   36   93 1    
    72   36   94 1    
    73   37   38 2    
    74   37   39 am   BACKBONE|DICT|INTERRES
    75   39   40 1    
    76   39   95 1    
    77   40   41 1    
    78   40   42 1    
    79   40   96 1    
    80   41   97 1    
    81   41   98 1    
    82   41   99 1    
    83   42   43 2    
    84   42   44 am   BACKBONE|DICT|INTERRES
    85   44   45 1    
    86   44  100 1    
    87   45   46 1    
    88   45   47 1    
    89   45  101 1    
    90   46  102 1    
    91   46  103 1    
    92   46  104 1    
    93   47   48 2    
    94   47   49 am   BACKBONE|DICT|INTERRES
    95   49   50 1    
    96   49  105 1    
    97   50   51 1    
    98   50   52 1    
    99   50  106 1    
   100   51  107 1    
   101   51  108 1    
   102   51  109 1    
   103   52   53 2    
   104   52   54 am   BACKBONE|DICT|INTERRES
   105   54   55 1    
   106   54  110 1    
   107   55   56 1    
   108   55   59 1    
   109   55  111 1    
   110   56   57 am   BACKBONE|DICT|INTERRES
   111   56   58 2    
   112   57  112 1    
   113   57  113 1    
   114   59   60 1    
   115   59  114 1    
   116   59  115 1    
   117   60   61 1    
   118   61  116 1    
   119   61  117 1    
@<TRIPOS>SUBSTRUCTURE
     1 UNK         1 GROUP             0       ****    0 ROOT    
