@<TRIPOS>MOLECULE
3R8
117   119    1
SMALL
USER_CHARGES


@<TRIPOS>ATOM
      1 CA         19.0607  -26.2025  -49.7217 C.3       0 UNK        -0.2013 
      2 C          18.4578  -25.9614  -48.3458 C.2       0 UNK         0.4866 
      3 O          18.2384  -24.8093  -47.9717 O.2       0 UNK        -0.5176 
      4 N          18.1951  -27.0417  -47.5962 N.am      1 UNK        -0.4884 
      5 CA         17.6045  -27.0498  -46.2473 C.3       1 UNK         0.0853 
      6 C6         16.1202  -26.5922  -46.2152 C.3       10 UNK        -0.0849 
      7 S7         15.0604  -27.7809  -47.1069 S.3       10 UNK        -0.2776 
      8 C8         14.1618  -28.5973  -45.7422 C.3       10 UNK         0.0316 
      9 C9         15.0768  -29.1697  -44.6622 C.ar      10 UNK        -0.0863 
     10 C10        16.0438  -30.1295  -44.9789 C.ar      10 UNK        -0.1009 
     11 C11        16.8704  -30.6561  -43.9824 C.ar      10 UNK        -0.0712 
     12 C12        16.7052  -30.2433  -42.6581 C.ar      10 UNK        -0.0894 
     13 C13        15.7392  -29.2887  -42.3219 C.ar      10 UNK        -0.0745 
     14 C14        14.9339  -28.7541  -43.3333 C.ar      10 UNK        -0.0972 
     15 C15        15.5040  -28.8592  -40.8733 C.3       10 UNK         0.0209 
     16 S16        17.0039  -28.7996  -39.8319 S.3       10 UNK        -0.2568 
     17 C17        17.9445  -27.4432  -40.6053 C.3       10 UNK        -0.0983 
     18 CA         19.2940  -27.9240  -41.1967 C.3       3 UNK         0.0876 
     19 N          19.7277  -27.0332  -42.2685 N.am      3 UNK        -0.4424 
     20 C          20.7044  -27.2771  -43.1479 C.2       2 UNK         0.4918 
     21 O          21.4198  -28.2801  -43.1402 O.2       2 UNK        -0.4875 
     22 CA         20.8103  -26.2523  -44.2920 C.3       2 UNK         0.0481 
     23 CB         22.2011  -26.2060  -44.9476 C.3       2 UNK        -0.1831 
     24 N          19.8120  -26.5744  -45.3104 N.am      2 UNK        -0.4498 
     25 C          18.4956  -26.3448  -45.2030 C.2       1 UNK         0.5027 
     26 O          17.9974  -25.6524  -44.3120 O.2       1 UNK        -0.4969 
     27 C          20.3719  -28.0803  -40.1038 C.2       3 UNK         0.5005 
     28 O          20.9927  -27.0864  -39.7181 O.2       3 UNK        -0.5279 
     29 N          20.5126  -29.3190  -39.6130 N.am      4 UNK        -0.4463 
     30 CA         21.5058  -29.8654  -38.6835 C.3       4 UNK         0.0283 
     31 CB         21.8152  -28.9384  -37.4910 C.3       4 UNK        -0.1875 
     32 C          22.7792  -30.2753  -39.4324 C.2       4 UNK         0.4949 
     33 O          23.1984  -29.5962  -40.3704 O.2       4 UNK        -0.5039 
     34 N          23.3929  -31.3802  -38.9879 N.am      5 UNK        -0.4663 
     35 CA         24.5834  -31.9869  -39.6002 C.3       5 UNK         0.0242 
     36 CB         24.8821  -33.3246  -38.9052 C.3       5 UNK        -0.1982 
     37 C          25.8302  -31.0835  -39.5938 C.2       5 UNK         0.5017 
     38 O          26.7029  -31.2510  -40.4455 O.2       5 UNK        -0.5012 
     39 N          25.8763  -30.1303  -38.6526 N.am      6 UNK        -0.4439 
     40 CA         26.8830  -29.0708  -38.5775 C.3       6 UNK         0.0297 
     41 CB         26.7757  -28.3690  -37.2138 C.3       6 UNK        -0.2006 
     42 C          26.7723  -28.0430  -39.7206 C.2       6 UNK         0.4892 
     43 O          27.7815  -27.4224  -40.0570 O.2       6 UNK        -0.5089 
     44 N          25.5691  -27.8783  -40.2900 N.am      7 UNK        -0.4243 
     45 CA         25.3108  -27.0280  -41.4493 C.3       7 UNK         0.0196 
     46 CB         23.9544  -26.3243  -41.2882 C.3       7 UNK        -0.2007 
     47 C          25.3702  -27.8729  -42.7286 C.2       7 UNK         0.5020 
     48 O          26.1832  -27.5711  -43.6028 O.2       7 UNK        -0.5147 
     49 N          24.5533  -28.9336  -42.8014 N.am      8 UNK        -0.4734 
     50 CA         24.5806  -29.9256  -43.8765 C.3       8 UNK         0.0238 
     51 CB         24.0463  -29.3655  -45.2107 C.3       8 UNK        -0.1912 
     52 C          23.8208  -31.1971  -43.4881 C.2       8 UNK         0.5038 
     53 O          24.4410  -32.2599  -43.4359 O.2       8 UNK        -0.5046 
     54 N          22.5018  -31.0853  -43.2753 N.am      9 UNK        -0.4200 
     55 CA         21.5872  -32.2328  -43.1836 C.3       9 UNK         0.0839 
     56 C          20.8258  -32.2626  -41.8340 C.2       9 UNK         0.5513 
     57 N          20.9886  -33.3196  -41.0500 N.am      9 UNK        -0.7519 
     58 O          20.0646  -31.3606  -41.4973 O.2       9 UNK        -0.4960 
     59 C59        20.6568  -32.3184  -44.4268 C.3       10 UNK        -0.0876 
     60 S60        19.5328  -30.8959  -44.6778 S.3       10 UNK        -0.2414 
     61 C61        17.9333  -31.6866  -44.3201 C.3       10 UNK         0.0169 
     62 H62        20.0301  -25.7107  -49.7980 H         1 UNK         0.0903 
     63 H63        19.2017  -27.2636  -49.9269 H         1 UNK         0.0903 
     64 H64        18.4091  -25.7925  -50.4930 H         1 UNK         0.0903 
     65 H65        18.3919  -27.9567  -47.9787 H         1 UNK         0.3096 
     66 H66        17.6238  -28.0927  -45.9292 H         1 UNK         0.1121 
     67 H67        15.7533  -26.4986  -45.1917 H         1 UNK         0.0849 
     68 H68        16.0060  -25.6041  -46.6628 H         1 UNK         0.0849 
     69 H69        13.4590  -27.8808  -45.3141 H         1 UNK         0.0865 
     70 H70        13.5559  -29.4052  -46.1547 H         1 UNK         0.0865 
     71 H71        16.1596  -30.4573  -46.0032 H         1 UNK         0.1346 
     72 H72        17.3330  -30.6748  -41.8905 H         1 UNK         0.1412 
     73 H73        14.1776  -28.0233  -43.0803 H         1 UNK         0.1426 
     74 H74        14.8008  -29.5596  -40.4211 H         1 UNK         0.0716 
     75 H75        15.0247  -27.8794  -40.8401 H         1 UNK         0.0716 
     76 H76        17.3247  -27.0091  -41.3920 H         1 UNK         0.0695 
     77 H77        18.0895  -26.6452  -39.8742 H         1 UNK         0.0695 
     78 H78        19.1395  -28.8949  -41.6721 H         1 UNK         0.0983 
     79 H79        19.1702  -26.2014  -42.4065 H         1 UNK         0.3095 
     80 H80        20.6072  -25.2617  -43.8793 H         1 UNK         0.0454 
     81 H81        22.3654  -27.0511  -45.6126 H         1 UNK         0.0851 
     82 H82        22.3212  -25.2993  -45.5403 H         1 UNK         0.0851 
     83 H83        22.9970  -26.2143  -44.2037 H         1 UNK         0.0851 
     84 H84        20.1238  -27.1597  -46.0718 H         1 UNK         0.2976 
     85 H85        20.0035  -30.0439  -40.1142 H         1 UNK         0.3116 
     86 H86        21.0476  -30.7725  -38.2863 H         1 UNK         0.0646 
     87 H87        22.3941  -29.4641  -36.7311 H         1 UNK         0.0847 
     88 H88        20.9015  -28.5833  -37.0144 H         1 UNK         0.0847 
     89 H89        22.3998  -28.0680  -37.7909 H         1 UNK         0.0847 
     90 H90        22.9899  -31.8772  -38.2059 H         1 UNK         0.3040 
     91 H91        24.3447  -32.1925  -40.6456 H         1 UNK         0.1015 
     92 H92        24.0411  -34.0130  -38.9910 H         1 UNK         0.0786 
     93 H93        25.1017  -33.1896  -37.8453 H         1 UNK         0.0786 
     94 H94        25.7456  -33.8148  -39.3574 H         1 UNK         0.0786 
     95 H95        25.1171  -30.0901  -37.9884 H         1 UNK         0.3172 
     96 H96        27.8687  -29.5360  -38.6462 H         1 UNK         0.0595 
     97 H97        26.9257  -29.0698  -36.3922 H         1 UNK         0.0839 
     98 H98        25.8036  -27.8929  -37.0784 H         1 UNK         0.0839 
     99 H99        27.5346  -27.5914  -37.1155 H         1 UNK         0.0839 
    100 H100       24.8013  -28.4765  -40.0038 H         1 UNK         0.2998 
    101 H101       26.0767  -26.2522  -41.5181 H         1 UNK         0.0822 
    102 H102       23.9020  -25.7733  -40.3492 H         1 UNK         0.0787 
    103 H103       23.7892  -25.6072  -42.0918 H         1 UNK         0.0787 
    104 H104       23.1261  -27.0318  -41.3015 H         1 UNK         0.0787 
    105 H105       23.9275  -29.1309  -42.0205 H         1 UNK         0.3055 
    106 H106       25.6245  -30.2109  -44.0266 H         1 UNK         0.1106 
    107 H107       22.9828  -29.1397  -45.1536 H         1 UNK         0.0828 
    108 H108       24.5699  -28.4614  -45.5193 H         1 UNK         0.0828 
    109 H109       24.1724  -30.0960  -46.0106 H         1 UNK         0.0828 
    110 H110       22.0661  -30.1660  -43.2638 H         1 UNK         0.2931 
    111 H111       22.1769  -33.1511  -43.2146 H         1 UNK         0.0412 
    112 H112       21.5985  -34.0771  -41.3150 H         1 UNK         0.3472 
    113 H113       20.4795  -33.3680  -40.1821 H         1 UNK         0.3472 
    114 H114       20.0796  -33.2440  -44.3931 H         1 UNK         0.0970 
    115 H115       21.2717  -32.4052  -45.3237 H         1 UNK         0.0970 
    116 H116       17.6268  -32.2868  -45.1781 H         1 UNK         0.0612 
    117 H117       18.0438  -32.3769  -43.4822 H         1 UNK         0.0612 
@<TRIPOS>BOND
     1    1    2 1    
     2    1   62 1    
     3    1   63 1    
     4    1   64 1    
     5    2    3 2    
     6    2    4 am   BACKBONE|DICT|INTERRES
     7    4    5 1    
     8    4   65 1    
     9    5    6 1    
    10    5   25 1    
    11    5   66 1    
    12    6    7 1    
    13    6   67 1    
    14    6   68 1    
    15    7    8 1    
    16    8    9 1    
    17    8   69 1    
    18    8   70 1    
    19    9   10 ar   
    20    9   14 ar   
    21   10   11 ar   
    22   10   71 1    
    23   11   12 ar   
    24   11   61 1    
    25   12   13 ar   
    26   12   72 1    
    27   13   14 ar   
    28   13   15 1    
    29   14   73 1    
    30   15   16 1    
    31   15   74 1    
    32   15   75 1    
    33   16   17 1    
    34   17   18 1    
    35   17   76 1    
    36   17   77 1    
    37   18   19 1    
    38   18   27 1    
    39   18   78 1    
    40   19   20 am   BACKBONE|DICT|INTERRES
    41   19   79 1    
    42   20   21 2    
    43   20   22 1    
    44   22   23 1    
    45   22   24 1    
    46   22   80 1    
    47   23   81 1    
    48   23   82 1    
    49   23   83 1    
    50   24   25 am   BACKBONE|DICT|INTERRES
    51   24   84 1    
    52   25   26 2    
    53   27   28 2    
    54   27   29 am   BACKBONE|DICT|INTERRES
    55   29   30 1    
    56   29   85 1    
    57   30   31 1    
    58   30   32 1    
    59   30   86 1    
    60   31   87 1    
    61   31   88 1    
    62   31   89 1    
    63   32   33 2    
    64   32   34 am   BACKBONE|DICT|INTERRES
    65   34   35 1    
    66   34   90 1    
    67   35   36 1    
    68   35   37 1    
    69   35   91 1    
    70   36   92 1    
    71   36   93 1    
    72   36   94 1    
    73   37   38 2    
    74   37   39 am   BACKBONE|DICT|INTERRES
    75   39   40 1    
    76   39   95 1    
    77   40   41 1    
    78   40   42 1    
    79   40   96 1    
    80   41   97 1    
    81   41   98 1    
    82   41   99 1    
    83   42   43 2    
    84   42   44 am   BACKBONE|DICT|INTERRES
    85   44   45 1    
    86   44  100 1    
    87   45   46 1    
    88   45   47 1    
    89   45  101 1    
    90   46  102 1    
    91   46  103 1    
    92   46  104 1    
    93   47   48 2    
    94   47   49 am   BACKBONE|DICT|INTERRES
    95   49   50 1    
    96   49  105 1    
    97   50   51 1    
    98   50   52 1    
    99   50  106 1    
   100   51  107 1    
   101   51  108 1    
   102   51  109 1    
   103   52   53 2    
   104   52   54 am   BACKBONE|DICT|INTERRES
   105   54   55 1    
   106   54  110 1    
   107   55   56 1    
   108   55   59 1    
   109   55  111 1    
   110   56   57 am   BACKBONE|DICT|INTERRES
   111   56   58 2    
   112   57  112 1    
   113   57  113 1    
   114   59   60 1    
   115   59  114 1    
   116   59  115 1    
   117   60   61 1    
   118   61  116 1    
   119   61  117 1    
@<TRIPOS>SUBSTRUCTURE
     1 UNK         1 GROUP             0       ****    0 ROOT    
