@<TRIPOS>MOLECULE
3R8
117   119    1
SMALL
USER_CHARGES


@<TRIPOS>ATOM
      1 CA         16.7248  -21.3106  -42.7839 C.3       0 UNK        -0.2013 
      2 C          16.7506  -22.5970  -43.5959 C.2       0 UNK         0.4866 
      3 O          16.0099  -22.7202  -44.5723 O.2       0 UNK        -0.5176 
      4 N          17.5897  -23.5599  -43.1952 N.am      1 UNK        -0.4884 
      5 CA         17.7808  -24.8423  -43.8807 C.3       1 UNK         0.0853 
      6 C6         18.5537  -25.8542  -42.9993 C.3       10 UNK        -0.0849 
      7 S7         17.6353  -26.3219  -41.4929 S.3       10 UNK        -0.2776 
      8 C8         16.5704  -27.6848  -42.0730 C.3       10 UNK         0.0316 
      9 C9         17.3655  -28.8548  -42.6365 C.ar      10 UNK        -0.0863 
     10 C10        18.0647  -29.7122  -41.7816 C.ar      10 UNK        -0.1009 
     11 C11        18.7983  -30.7848  -42.2986 C.ar      10 UNK        -0.0712 
     12 C12        18.8084  -31.0086  -43.6781 C.ar      10 UNK        -0.0894 
     13 C13        18.1612  -30.1249  -44.5475 C.ar      10 UNK        -0.0745 
     14 C14        17.4167  -29.0676  -44.0176 C.ar      10 UNK        -0.0972 
     15 C15        18.3100  -30.2650  -46.0594 C.3       10 UNK         0.0209 
     16 S16        20.0345  -30.5140  -46.6295 S.3       10 UNK        -0.2568 
     17 C17        21.0445  -29.3976  -45.5874 C.3       10 UNK        -0.0983 
     18 CA         21.4000  -28.0524  -46.2627 C.3       3 UNK         0.0876 
     19 N          20.2009  -27.2689  -46.5565 N.am      3 UNK        -0.4424 
     20 C          20.1203  -26.2940  -47.4697 C.2       2 UNK         0.4918 
     21 O          21.0328  -25.9958  -48.2410 O.2       2 UNK        -0.4875 
     22 CA         18.7897  -25.5210  -47.5346 C.3       2 UNK         0.0481 
     23 CB         17.8454  -26.1697  -48.5596 C.3       2 UNK        -0.1831 
     24 N          18.1176  -25.4460  -46.2328 N.am      2 UNK        -0.4498 
     25 C          18.5123  -24.6535  -45.2252 C.2       1 UNK         0.5027 
     26 O          19.4316  -23.8353  -45.3133 O.2       1 UNK        -0.4969 
     27 C          22.3443  -27.2564  -45.3392 C.2       3 UNK         0.5005 
     28 O          21.8942  -26.3807  -44.5943 O.2       3 UNK        -0.5279 
     29 N          23.6313  -27.6256  -45.3588 N.am      4 UNK        -0.4463 
     30 CA         24.6346  -27.1801  -44.3895 C.3       4 UNK         0.0283 
     31 CB         26.0339  -27.4996  -44.9427 C.3       4 UNK        -0.1875 
     32 C          24.4306  -27.8550  -43.0197 C.2       4 UNK         0.4949 
     33 O          23.7651  -28.8891  -42.9335 O.2       4 UNK        -0.5039 
     34 N          25.0246  -27.2616  -41.9756 N.am      5 UNK        -0.4663 
     35 CA         25.0595  -27.6922  -40.5662 C.3       5 UNK         0.0242 
     36 CB         25.6931  -29.0903  -40.4152 C.3       5 UNK        -0.1982 
     37 C          23.7148  -27.6198  -39.8179 C.2       5 UNK         0.5017 
     38 O          23.7134  -27.2404  -38.6470 O.2       5 UNK        -0.5012 
     39 N          22.6116  -27.9811  -40.4881 N.am      6 UNK        -0.4439 
     40 CA         21.2198  -27.9973  -40.0097 C.3       6 UNK         0.0297 
     41 CB         20.7583  -26.5849  -39.5926 C.3       6 UNK        -0.2006 
     42 C          20.9184  -29.0491  -38.9193 C.2       6 UNK         0.4892 
     43 O          19.8075  -29.0641  -38.3870 O.2       6 UNK        -0.5089 
     44 N          21.8790  -29.9328  -38.6318 N.am      7 UNK        -0.4243 
     45 CA         21.7663  -31.0870  -37.7495 C.3       7 UNK         0.0196 
     46 CB         21.9626  -30.6626  -36.2835 C.3       7 UNK        -0.2007 
     47 C          22.8338  -32.0955  -38.1846 C.2       7 UNK         0.5020 
     48 O          23.9109  -31.6770  -38.6165 O.2       7 UNK        -0.5147 
     49 N          22.5155  -33.3940  -38.0666 N.am      8 UNK        -0.4734 
     50 CA         23.3408  -34.5435  -38.4797 C.3       8 UNK         0.0238 
     51 CB         24.5696  -34.6888  -37.5559 C.3       8 UNK        -0.1912 
     52 C          23.7176  -34.5032  -39.9774 C.2       8 UNK         0.5038 
     53 O          24.8614  -34.7859  -40.3395 O.2       8 UNK        -0.5046 
     54 N          22.7435  -34.1147  -40.8102 N.am      9 UNK        -0.4200 
     55 CA         22.9146  -33.8072  -42.2401 C.3       9 UNK         0.0839 
     56 C          23.1520  -35.0377  -43.1628 C.2       9 UNK         0.5513 
     57 N          22.9669  -36.2667  -42.6961 N.am      9 UNK        -0.7519 
     58 O          23.5127  -34.8717  -44.3250 O.2       9 UNK        -0.4960 
     59 C59        21.7583  -32.9226  -42.7835 C.3       10 UNK        -0.0876 
     60 S60        21.4061  -31.4801  -41.7158 S.3       10 UNK        -0.2414 
     61 C61        19.6237  -31.6681  -41.3754 C.3       10 UNK         0.0169 
     62 H62        15.7235  -21.1344  -42.3916 H         1 UNK         0.0903 
     63 H63        17.4170  -21.3450  -41.9427 H         1 UNK         0.0903 
     64 H64        16.9983  -20.4643  -43.4136 H         1 UNK         0.0903 
     65 H65        18.1804  -23.4049  -42.3908 H         1 UNK         0.3096 
     66 H66        16.7905  -25.2523  -44.0911 H         1 UNK         0.1121 
     67 H67        19.5114  -25.4297  -42.6906 H         1 UNK         0.0849 
     68 H68        18.8132  -26.7543  -43.5567 H         1 UNK         0.0849 
     69 H69        15.9633  -28.0347  -41.2368 H         1 UNK         0.0865 
     70 H70        15.8671  -27.3013  -42.8136 H         1 UNK         0.0865 
     71 H71        18.0539  -29.5277  -40.7155 H         1 UNK         0.1346 
     72 H72        19.3880  -31.8259  -44.0833 H         1 UNK         0.1412 
     73 H73        16.8963  -28.3917  -44.6818 H         1 UNK         0.1426 
     74 H74        17.9140  -29.3832  -46.5651 H         1 UNK         0.0716 
     75 H75        17.7045  -31.1072  -46.3965 H         1 UNK         0.0716 
     76 H76        21.9561  -29.9501  -45.3505 H         1 UNK         0.0695 
     77 H77        20.5704  -29.2157  -44.6235 H         1 UNK         0.0695 
     78 H78        21.9231  -28.2555  -47.2001 H         1 UNK         0.0983 
     79 H79        19.4181  -27.4200  -45.9421 H         1 UNK         0.3095 
     80 H80        19.0087  -24.5055  -47.8717 H         1 UNK         0.0454 
     81 H81        17.5818  -27.1910  -48.2817 H         1 UNK         0.0851 
     82 H82        18.3115  -26.2119  -49.5450 H         1 UNK         0.0851 
     83 H83        16.9219  -25.6002  -48.6655 H         1 UNK         0.0851 
     84 H84        17.3260  -26.0583  -46.0982 H         1 UNK         0.2976 
     85 H85        23.9069  -28.3853  -45.9644 H         1 UNK         0.3116 
     86 H86        24.5432  -26.0990  -44.2633 H         1 UNK         0.0646 
     87 H87        26.1992  -27.0195  -45.9075 H         1 UNK         0.0847 
     88 H88        26.1824  -28.5727  -45.0712 H         1 UNK         0.0847 
     89 H89        26.8149  -27.1432  -44.2699 H         1 UNK         0.0847 
     90 H90        25.5192  -26.3986  -42.1591 H         1 UNK         0.3040 
     91 H91        25.7219  -26.9840  -40.0647 H         1 UNK         0.1015 
     92 H92        25.0768  -29.8723  -40.8606 H         1 UNK         0.0786 
     93 H93        25.8195  -29.3476  -39.3625 H         1 UNK         0.0786 
     94 H94        26.6780  -29.1332  -40.8799 H         1 UNK         0.0786 
     95 H95        22.7609  -28.3384  -41.4303 H         1 UNK         0.3172 
     96 H96        20.6209  -28.2917  -40.8731 H         1 UNK         0.0595 
     97 H97        21.2908  -26.2221  -38.7136 H         1 UNK         0.0839 
     98 H98        19.6965  -26.5783  -39.3451 H         1 UNK         0.0839 
     99 H99        20.9047  -25.8661  -40.3986 H         1 UNK         0.0839 
    100 H100       22.7568  -29.8847  -39.1343 H         1 UNK         0.2998 
    101 H101       20.7786  -31.5357  -37.8757 H         1 UNK         0.0822 
    102 H102       21.1969  -29.9533  -35.9691 H         1 UNK         0.0787 
    103 H103       21.9022  -31.5229  -35.6157 H         1 UNK         0.0787 
    104 H104       22.9358  -30.1945  -36.1291 H         1 UNK         0.0787 
    105 H105       21.6064  -33.6274  -37.6893 H         1 UNK         0.3055 
    106 H106       22.7257  -35.4355  -38.3491 H         1 UNK         0.1106 
    107 H107       25.2626  -33.8544  -37.6691 H         1 UNK         0.0828 
    108 H108       25.1222  -35.6020  -37.7801 H         1 UNK         0.0828 
    109 H109       24.2747  -34.7397  -36.5079 H         1 UNK         0.0828 
    110 H110       21.8402  -33.8936  -40.4207 H         1 UNK         0.2931 
    111 H111       23.8252  -33.2088  -42.3135 H         1 UNK         0.0412 
    112 H112       23.1268  -37.0561  -43.3024 H         1 UNK         0.3472 
    113 H113       22.6780  -36.4120  -41.7421 H         1 UNK         0.3472 
    114 H114       20.8555  -33.5216  -42.9114 H         1 UNK         0.0970 
    115 H115       22.0080  -32.5445  -43.7769 H         1 UNK         0.0970 
    116 H116       19.4467  -31.3968  -40.3337 H         1 UNK         0.0612 
    117 H117       19.3099  -32.7077  -41.4729 H         1 UNK         0.0612 
@<TRIPOS>BOND
     1    1    2 1    
     2    1   62 1    
     3    1   63 1    
     4    1   64 1    
     5    2    3 2    
     6    2    4 am   BACKBONE|DICT|INTERRES
     7    4    5 1    
     8    4   65 1    
     9    5    6 1    
    10    5   25 1    
    11    5   66 1    
    12    6    7 1    
    13    6   67 1    
    14    6   68 1    
    15    7    8 1    
    16    8    9 1    
    17    8   69 1    
    18    8   70 1    
    19    9   10 ar   
    20    9   14 ar   
    21   10   11 ar   
    22   10   71 1    
    23   11   12 ar   
    24   11   61 1    
    25   12   13 ar   
    26   12   72 1    
    27   13   14 ar   
    28   13   15 1    
    29   14   73 1    
    30   15   16 1    
    31   15   74 1    
    32   15   75 1    
    33   16   17 1    
    34   17   18 1    
    35   17   76 1    
    36   17   77 1    
    37   18   19 1    
    38   18   27 1    
    39   18   78 1    
    40   19   20 am   BACKBONE|DICT|INTERRES
    41   19   79 1    
    42   20   21 2    
    43   20   22 1    
    44   22   23 1    
    45   22   24 1    
    46   22   80 1    
    47   23   81 1    
    48   23   82 1    
    49   23   83 1    
    50   24   25 am   BACKBONE|DICT|INTERRES
    51   24   84 1    
    52   25   26 2    
    53   27   28 2    
    54   27   29 am   BACKBONE|DICT|INTERRES
    55   29   30 1    
    56   29   85 1    
    57   30   31 1    
    58   30   32 1    
    59   30   86 1    
    60   31   87 1    
    61   31   88 1    
    62   31   89 1    
    63   32   33 2    
    64   32   34 am   BACKBONE|DICT|INTERRES
    65   34   35 1    
    66   34   90 1    
    67   35   36 1    
    68   35   37 1    
    69   35   91 1    
    70   36   92 1    
    71   36   93 1    
    72   36   94 1    
    73   37   38 2    
    74   37   39 am   BACKBONE|DICT|INTERRES
    75   39   40 1    
    76   39   95 1    
    77   40   41 1    
    78   40   42 1    
    79   40   96 1    
    80   41   97 1    
    81   41   98 1    
    82   41   99 1    
    83   42   43 2    
    84   42   44 am   BACKBONE|DICT|INTERRES
    85   44   45 1    
    86   44  100 1    
    87   45   46 1    
    88   45   47 1    
    89   45  101 1    
    90   46  102 1    
    91   46  103 1    
    92   46  104 1    
    93   47   48 2    
    94   47   49 am   BACKBONE|DICT|INTERRES
    95   49   50 1    
    96   49  105 1    
    97   50   51 1    
    98   50   52 1    
    99   50  106 1    
   100   51  107 1    
   101   51  108 1    
   102   51  109 1    
   103   52   53 2    
   104   52   54 am   BACKBONE|DICT|INTERRES
   105   54   55 1    
   106   54  110 1    
   107   55   56 1    
   108   55   59 1    
   109   55  111 1    
   110   56   57 am   BACKBONE|DICT|INTERRES
   111   56   58 2    
   112   57  112 1    
   113   57  113 1    
   114   59   60 1    
   115   59  114 1    
   116   59  115 1    
   117   60   61 1    
   118   61  116 1    
   119   61  117 1    
@<TRIPOS>SUBSTRUCTURE
     1 UNK         1 GROUP             0       ****    0 ROOT    
