@<TRIPOS>MOLECULE
3R8
117   119    1
SMALL
USER_CHARGES


@<TRIPOS>ATOM
      1 CA         15.7733  -23.1982  -47.4018 C.3       0 UNK        -0.2013 
      2 C          16.7053  -24.1770  -46.7044 C.2       0 UNK         0.4866 
      3 O          17.7540  -24.5214  -47.2499 O.2       0 UNK        -0.5176 
      4 N          16.3457  -24.6162  -45.4919 N.am      1 UNK        -0.4884 
      5 CA         17.0726  -25.5961  -44.6704 C.3       1 UNK         0.0853 
      6 C6         16.1282  -26.2870  -43.6498 C.3       10 UNK        -0.0849 
      7 S7         14.8866  -27.3313  -44.4854 S.3       10 UNK        -0.2776 
      8 C8         15.1342  -28.9523  -43.6740 C.3       10 UNK         0.0316 
      9 C9         16.5523  -29.5139  -43.7818 C.ar      10 UNK        -0.0863 
     10 C10        17.1144  -30.1779  -42.6862 C.ar      10 UNK        -0.1009 
     11 C11        18.3994  -30.7241  -42.7625 C.ar      10 UNK        -0.0712 
     12 C12        19.1367  -30.5893  -43.9419 C.ar      10 UNK        -0.0894 
     13 C13        18.5856  -29.9357  -45.0469 C.ar      10 UNK        -0.0745 
     14 C14        17.2920  -29.4109  -44.9650 C.ar      10 UNK        -0.0972 
     15 C15        19.3664  -29.8187  -46.3448 C.3       10 UNK         0.0209 
     16 S16        20.0262  -28.1404  -46.5759 S.3       10 UNK        -0.2568 
     17 C17        21.7007  -28.2441  -45.8404 C.3       10 UNK        -0.0983 
     18 CA         21.9549  -27.2934  -44.6368 C.3       3 UNK         0.0876 
     19 N          21.2789  -26.0068  -44.8004 N.am      3 UNK        -0.4424 
     20 C          21.4576  -24.9004  -44.0694 C.2       2 UNK         0.4918 
     21 O          22.2996  -24.7946  -43.1788 O.2       2 UNK        -0.4875 
     22 CA         20.4639  -23.7540  -44.3365 C.3       2 UNK         0.0481 
     23 CB         21.0161  -22.7960  -45.4025 C.3       2 UNK        -0.1831 
     24 N          19.1447  -24.2478  -44.7555 N.am      2 UNK        -0.4498 
     25 C          18.3345  -25.0027  -43.9992 C.2       1 UNK         0.5027 
     26 O          18.5894  -25.2687  -42.8246 O.2       1 UNK        -0.4969 
     27 C          21.7005  -27.9766  -43.2745 C.2       3 UNK         0.5005 
     28 O          22.4882  -28.8459  -42.9052 O.2       3 UNK        -0.5279 
     29 N          20.6828  -27.5525  -42.5064 N.am      4 UNK        -0.4463 
     30 CA         20.4631  -28.0104  -41.1288 C.3       4 UNK         0.0283 
     31 CB         19.0688  -27.5805  -40.6487 C.3       4 UNK        -0.1875 
     32 C          21.5463  -27.5310  -40.1425 C.2       4 UNK         0.4949 
     33 O          21.6981  -28.1381  -39.0830 O.2       4 UNK        -0.5039 
     34 N          22.2859  -26.4702  -40.5010 N.am      5 UNK        -0.4663 
     35 CA         23.4468  -25.9811  -39.7524 C.3       5 UNK         0.0242 
     36 CB         23.6018  -24.4717  -40.0030 C.3       5 UNK        -0.1982 
     37 C          24.7481  -26.7263  -40.1107 C.2       5 UNK         0.5017 
     38 O          25.7512  -26.5294  -39.4229 O.2       5 UNK        -0.5012 
     39 N          24.7268  -27.5456  -41.1717 N.am      6 UNK        -0.4439 
     40 CA         25.8432  -28.3825  -41.6119 C.3       6 UNK         0.0297 
     41 CB         25.8375  -28.4434  -43.1518 C.3       6 UNK        -0.2006 
     42 C          25.7392  -29.7870  -40.9904 C.2       6 UNK         0.4892 
     43 O          24.8262  -30.0603  -40.2066 O.2       6 UNK        -0.5089 
     44 N          26.6789  -30.6672  -41.3592 N.am      7 UNK        -0.4243 
     45 CA         26.7249  -32.0757  -40.9560 C.3       7 UNK         0.0196 
     46 CB         28.1645  -32.5957  -41.1301 C.3       7 UNK        -0.2007 
     47 C          25.6905  -32.9220  -41.7270 C.2       7 UNK         0.5020 
     48 O          26.0636  -33.7871  -42.5214 O.2       7 UNK        -0.5147 
     49 N          24.4071  -32.6417  -41.4897 N.am      8 UNK        -0.4734 
     50 CA         23.2518  -33.3321  -42.0562 C.3       8 UNK         0.0238 
     51 CB         22.6604  -32.4755  -43.1891 C.3       8 UNK        -0.1912 
     52 C          22.2148  -33.5633  -40.9498 C.2       8 UNK         0.5038 
     53 O          22.2411  -32.8673  -39.9314 O.2       8 UNK        -0.5046 
     54 N          21.3139  -34.5266  -41.1816 N.am      9 UNK        -0.4200 
     55 CA         20.2270  -34.9351  -40.2704 C.3       9 UNK         0.0839 
     56 C          20.7046  -35.6167  -38.9504 C.2       9 UNK         0.5513 
     57 N          21.9370  -36.1036  -38.8665 N.am      9 UNK        -0.7519 
     58 O          19.9398  -35.7392  -37.9966 O.2       9 UNK        -0.4960 
     59 C59        19.1775  -33.8120  -40.0189 C.3       10 UNK        -0.0876 
     60 S60        18.4133  -33.1990  -41.5588 S.3       10 UNK        -0.2414 
     61 C61        18.9809  -31.4723  -41.5738 C.3       10 UNK         0.0169 
     62 H62        16.2920  -22.2599  -47.5965 H         1 UNK         0.0903 
     63 H63        15.4441  -23.6100  -48.3555 H         1 UNK         0.0903 
     64 H64        14.8888  -22.9798  -46.8036 H         1 UNK         0.0903 
     65 H65        15.4803  -24.2832  -45.0904 H         1 UNK         0.3096 
     66 H66        17.4509  -26.3740  -45.3380 H         1 UNK         0.1121 
     67 H67        16.6898  -26.9134  -42.9554 H         1 UNK         0.0849 
     68 H68        15.6156  -25.5465  -43.0335 H         1 UNK         0.0849 
     69 H69        14.8443  -28.8541  -42.6266 H         1 UNK         0.0865 
     70 H70        14.4436  -29.6718  -44.1156 H         1 UNK         0.0865 
     71 H71        16.5468  -30.2858  -41.7718 H         1 UNK         0.1346 
     72 H72        20.1325  -31.0049  -44.0042 H         1 UNK         0.1412 
     73 H73        16.8637  -28.9181  -45.8271 H         1 UNK         0.1426 
     74 H74        18.7023  -30.0465  -47.1799 H         1 UNK         0.0716 
     75 H75        20.1693  -30.5557  -46.3925 H         1 UNK         0.0716 
     76 H76        21.9440  -29.2789  -45.5914 H         1 UNK         0.0695 
     77 H77        22.3958  -27.9805  -46.6389 H         1 UNK         0.0695 
     78 H78        23.0245  -27.0706  -44.6322 H         1 UNK         0.0983 
     79 H79        20.5579  -25.9994  -45.5081 H         1 UNK         0.3095 
     80 H80        20.3373  -23.1981  -43.4053 H         1 UNK         0.0454 
     81 H81        21.9896  -22.4027  -45.1062 H         1 UNK         0.0851 
     82 H82        21.1434  -23.2911  -46.3660 H         1 UNK         0.0851 
     83 H83        20.3544  -21.9422  -45.5490 H         1 UNK         0.0851 
     84 H84        18.8700  -24.1012  -45.7233 H         1 UNK         0.2976 
     85 H85        20.0727  -26.8160  -42.8410 H         1 UNK         0.3116 
     86 H86        20.4968  -29.1005  -41.1340 H         1 UNK         0.0646 
     87 H87        18.8394  -28.0238  -39.6789 H         1 UNK         0.0847 
     88 H88        18.2916  -27.8993  -41.3421 H         1 UNK         0.0847 
     89 H89        18.9967  -26.4986  -40.5345 H         1 UNK         0.0847 
     90 H90        22.0961  -26.0122  -41.3854 H         1 UNK         0.3040 
     91 H91        23.2733  -26.1300  -38.6841 H         1 UNK         0.1015 
     92 H92        24.4079  -24.0564  -39.3966 H         1 UNK         0.0786 
     93 H93        22.6918  -23.9295  -39.7456 H         1 UNK         0.0786 
     94 H94        23.8377  -24.2570  -41.0458 H         1 UNK         0.0786 
     95 H95        23.8351  -27.7415  -41.6107 H         1 UNK         0.3172 
     96 H96        26.7871  -27.9383  -41.2894 H         1 UNK         0.0595 
     97 H97        25.7696  -27.4471  -43.5893 H         1 UNK         0.0839 
     98 H98        25.0040  -29.0336  -43.5335 H         1 UNK         0.0839 
     99 H99        26.7531  -28.8948  -43.5345 H         1 UNK         0.0839 
    100 H100       27.3818  -30.3718  -42.0213 H         1 UNK         0.2998 
    101 H101       26.4747  -32.1456  -39.8949 H         1 UNK         0.0822 
    102 H102       28.8685  -32.0247  -40.5244 H         1 UNK         0.0787 
    103 H103       28.2430  -33.6381  -40.8179 H         1 UNK         0.0787 
    104 H104       28.4931  -32.5405  -42.1688 H         1 UNK         0.0787 
    105 H105       24.1885  -31.9140  -40.8130 H         1 UNK         0.3055 
    106 H106       23.5537  -34.3045  -42.4522 H         1 UNK         0.1106 
    107 H107       22.3356  -31.5011  -42.8231 H         1 UNK         0.0828 
    108 H108       23.3904  -32.3061  -43.9807 H         1 UNK         0.0828 
    109 H109       21.7956  -32.9611  -43.6426 H         1 UNK         0.0828 
    110 H110       21.3675  -35.0469  -42.0452 H         1 UNK         0.2931 
    111 H111       19.7064  -35.7326  -40.8019 H         1 UNK         0.0412 
    112 H112       22.2331  -36.5524  -38.0137 H         1 UNK         0.3472 
    113 H113       22.5734  -36.0261  -39.6434 H         1 UNK         0.3472 
    114 H114       19.6225  -32.9861  -39.4620 H         1 UNK         0.0970 
    115 H115       18.3651  -34.1853  -39.3930 H         1 UNK         0.0970 
    116 H116       20.0709  -31.4505  -41.6043 H         1 UNK         0.0612 
    117 H117       18.6836  -30.9809  -40.6460 H         1 UNK         0.0612 
@<TRIPOS>BOND
     1    1    2 1    
     2    1   62 1    
     3    1   63 1    
     4    1   64 1    
     5    2    3 2    
     6    2    4 am   BACKBONE|DICT|INTERRES
     7    4    5 1    
     8    4   65 1    
     9    5    6 1    
    10    5   25 1    
    11    5   66 1    
    12    6    7 1    
    13    6   67 1    
    14    6   68 1    
    15    7    8 1    
    16    8    9 1    
    17    8   69 1    
    18    8   70 1    
    19    9   10 ar   
    20    9   14 ar   
    21   10   11 ar   
    22   10   71 1    
    23   11   12 ar   
    24   11   61 1    
    25   12   13 ar   
    26   12   72 1    
    27   13   14 ar   
    28   13   15 1    
    29   14   73 1    
    30   15   16 1    
    31   15   74 1    
    32   15   75 1    
    33   16   17 1    
    34   17   18 1    
    35   17   76 1    
    36   17   77 1    
    37   18   19 1    
    38   18   27 1    
    39   18   78 1    
    40   19   20 am   BACKBONE|DICT|INTERRES
    41   19   79 1    
    42   20   21 2    
    43   20   22 1    
    44   22   23 1    
    45   22   24 1    
    46   22   80 1    
    47   23   81 1    
    48   23   82 1    
    49   23   83 1    
    50   24   25 am   BACKBONE|DICT|INTERRES
    51   24   84 1    
    52   25   26 2    
    53   27   28 2    
    54   27   29 am   BACKBONE|DICT|INTERRES
    55   29   30 1    
    56   29   85 1    
    57   30   31 1    
    58   30   32 1    
    59   30   86 1    
    60   31   87 1    
    61   31   88 1    
    62   31   89 1    
    63   32   33 2    
    64   32   34 am   BACKBONE|DICT|INTERRES
    65   34   35 1    
    66   34   90 1    
    67   35   36 1    
    68   35   37 1    
    69   35   91 1    
    70   36   92 1    
    71   36   93 1    
    72   36   94 1    
    73   37   38 2    
    74   37   39 am   BACKBONE|DICT|INTERRES
    75   39   40 1    
    76   39   95 1    
    77   40   41 1    
    78   40   42 1    
    79   40   96 1    
    80   41   97 1    
    81   41   98 1    
    82   41   99 1    
    83   42   43 2    
    84   42   44 am   BACKBONE|DICT|INTERRES
    85   44   45 1    
    86   44  100 1    
    87   45   46 1    
    88   45   47 1    
    89   45  101 1    
    90   46  102 1    
    91   46  103 1    
    92   46  104 1    
    93   47   48 2    
    94   47   49 am   BACKBONE|DICT|INTERRES
    95   49   50 1    
    96   49  105 1    
    97   50   51 1    
    98   50   52 1    
    99   50  106 1    
   100   51  107 1    
   101   51  108 1    
   102   51  109 1    
   103   52   53 2    
   104   52   54 am   BACKBONE|DICT|INTERRES
   105   54   55 1    
   106   54  110 1    
   107   55   56 1    
   108   55   59 1    
   109   55  111 1    
   110   56   57 am   BACKBONE|DICT|INTERRES
   111   56   58 2    
   112   57  112 1    
   113   57  113 1    
   114   59   60 1    
   115   59  114 1    
   116   59  115 1    
   117   60   61 1    
   118   61  116 1    
   119   61  117 1    
@<TRIPOS>SUBSTRUCTURE
     1 UNK         1 GROUP             0       ****    0 ROOT    
