@<TRIPOS>MOLECULE
3R8
117   119    1
SMALL
USER_CHARGES


@<TRIPOS>ATOM
      1 CA         16.4533  -22.7504  -41.4683 C.3       0 UNK        -0.2013 
      2 C          16.9208  -23.7980  -42.4671 C.2       0 UNK         0.4866 
      3 O          16.3570  -23.9022  -43.5577 O.2       0 UNK        -0.5176 
      4 N          17.9477  -24.5787  -42.1082 N.am      1 UNK        -0.4884 
      5 CA         18.5370  -25.6292  -42.9437 C.3       1 UNK         0.0853 
      6 C6         19.2584  -26.7109  -42.0977 C.3       10 UNK        -0.0849 
      7 S7         18.1720  -27.5577  -40.8949 S.3       10 UNK        -0.2776 
      8 C8         17.0068  -28.5026  -41.9379 C.3       10 UNK         0.0316 
      9 C9         17.7110  -29.5101  -42.8352 C.ar      10 UNK        -0.0863 
     10 C10        17.9912  -30.8016  -42.3770 C.ar      10 UNK        -0.1009 
     11 C11        18.6692  -31.7125  -43.1955 C.ar      10 UNK        -0.0712 
     12 C12        19.0722  -31.3202  -44.4764 C.ar      10 UNK        -0.0894 
     13 C13        18.8019  -30.0296  -44.9382 C.ar      10 UNK        -0.0745 
     14 C14        18.0943  -29.1426  -44.1270 C.ar      10 UNK        -0.0972 
     15 C15        19.3461  -29.5513  -46.2718 C.3       10 UNK         0.0209 
     16 S16        20.9717  -28.7967  -45.9885 S.3       10 UNK        -0.2568 
     17 C17        21.3447  -27.9839  -47.5777 C.3       10 UNK        -0.0983 
     18 CA         21.7798  -26.5051  -47.4068 C.3       3 UNK         0.0876 
     19 N          20.6866  -25.6868  -46.8672 N.am      3 UNK        -0.4424 
     20 C          20.6348  -24.3489  -46.9058 C.2       2 UNK         0.4918 
     21 O          21.4571  -23.6553  -47.5045 O.2       2 UNK        -0.4875 
     22 CA         19.4974  -23.6535  -46.1305 C.3       2 UNK         0.0481 
     23 CB         18.4092  -23.1744  -47.1045 C.3       2 UNK        -0.1831 
     24 N          18.8634  -24.4350  -45.0584 N.am      2 UNK        -0.4498 
     25 C          19.4675  -25.0044  -44.0048 C.2       1 UNK         0.5027 
     26 O          20.6897  -25.0316  -43.8474 O.2       1 UNK        -0.4969 
     27 C          23.0943  -26.3879  -46.5897 C.2       3 UNK         0.5005 
     28 O          24.1390  -26.8203  -47.0788 O.2       3 UNK        -0.5279 
     29 N          23.0141  -25.8320  -45.3679 N.am      4 UNK        -0.4463 
     30 CA         24.0792  -25.6489  -44.3751 C.3       4 UNK         0.0283 
     31 CB         25.2846  -24.8718  -44.9472 C.3       4 UNK        -0.1875 
     32 C          24.4853  -26.9436  -43.6445 C.2       4 UNK         0.4949 
     33 O          25.5546  -26.9797  -43.0345 O.2       4 UNK        -0.5039 
     34 N          23.6189  -27.9688  -43.6654 N.am      5 UNK        -0.4663 
     35 CA         23.7974  -29.2107  -42.9002 C.3       5 UNK         0.0242 
     36 CB         22.9067  -30.3166  -43.4884 C.3       5 UNK        -0.1982 
     37 C          23.5030  -29.0480  -41.3982 C.2       5 UNK         0.5017 
     38 O          23.9363  -29.8895  -40.6113 O.2       5 UNK        -0.5012 
     39 N          22.7480  -27.9985  -41.0305 N.am      6 UNK        -0.4439 
     40 CA         22.3491  -27.6209  -39.6642 C.3       6 UNK         0.0297 
     41 CB         23.5726  -27.1004  -38.8808 C.3       6 UNK        -0.2006 
     42 C          21.5907  -28.7285  -38.8992 C.2       6 UNK         0.4892 
     43 O          21.6770  -28.7934  -37.6720 O.2       6 UNK        -0.5089 
     44 N          20.8878  -29.5908  -39.6489 N.am      7 UNK        -0.4243 
     45 CA         20.1742  -30.7954  -39.2112 C.3       7 UNK         0.0196 
     46 CB         19.0012  -30.4430  -38.2727 C.3       7 UNK        -0.2007 
     47 C          21.0759  -31.9054  -38.6328 C.2       7 UNK         0.5020 
     48 O          20.5507  -32.8708  -38.0762 O.2       7 UNK        -0.5147 
     49 N          22.4021  -31.8166  -38.8169 N.am      8 UNK        -0.4734 
     50 CA         23.3775  -32.8410  -38.4218 C.3       8 UNK         0.0238 
     51 CB         24.7256  -32.1605  -38.1199 C.3       8 UNK        -0.1912 
     52 C          23.4904  -33.9385  -39.4994 C.2       8 UNK         0.5038 
     53 O          24.5924  -34.2678  -39.9426 O.2       8 UNK        -0.5046 
     54 N          22.3325  -34.4512  -39.9261 N.am      9 UNK        -0.4200 
     55 CA         22.1587  -35.3600  -41.0677 C.3       9 UNK         0.0839 
     56 C          22.2641  -36.8684  -40.7040 C.2       9 UNK         0.5513 
     57 N          22.4462  -37.2400  -39.4423 N.am      9 UNK        -0.7519 
     58 O          22.1898  -37.7195  -41.5865 O.2       9 UNK        -0.4960 
     59 C59        20.8439  -35.0441  -41.8307 C.3       10 UNK        -0.0876 
     60 S60        20.7669  -33.3034  -42.3781 S.3       10 UNK        -0.2414 
     61 C61        18.9879  -33.1142  -42.6971 C.3       10 UNK         0.0169 
     62 H62        16.5449  -21.7540  -41.8997 H         1 UNK         0.0903 
     63 H63        15.4070  -22.9168  -41.2133 H         1 UNK         0.0903 
     64 H64        17.0350  -22.7767  -40.5471 H         1 UNK         0.0903 
     65 H65        18.3787  -24.4496  -41.2035 H         1 UNK         0.3096 
     66 H66        17.7285  -26.1192  -43.4870 H         1 UNK         0.1121 
     67 H67        19.7299  -27.4606  -42.7350 H         1 UNK         0.0849 
     68 H68        20.0729  -26.2553  -41.5328 H         1 UNK         0.0849 
     69 H69        16.3039  -29.0237  -41.2861 H         1 UNK         0.0865 
     70 H70        16.4026  -27.8162  -42.5323 H         1 UNK         0.0865 
     71 H71        17.6892  -31.0917  -41.3800 H         1 UNK         0.1346 
     72 H72        19.6295  -32.0085  -45.0972 H         1 UNK         0.1412 
     73 H73        17.8863  -28.1480  -44.4915 H         1 UNK         0.1426 
     74 H74        18.6672  -28.8250  -46.7214 H         1 UNK         0.0716 
     75 H75        19.4396  -30.3804  -46.9748 H         1 UNK         0.0716 
     76 H76        20.4734  -28.0397  -48.2320 H         1 UNK         0.0695 
     77 H77        22.1272  -28.5563  -48.0795 H         1 UNK         0.0695 
     78 H78        22.0106  -26.1188  -48.4021 H         1 UNK         0.0983 
     79 H79        19.9697  -26.1835  -46.3604 H         1 UNK         0.3095 
     80 H80        19.9357  -22.7729  -45.6570 H         1 UNK         0.0454 
     81 H81        18.8345  -22.5554  -47.8958 H         1 UNK         0.0851 
     82 H82        17.6571  -22.5711  -46.5957 H         1 UNK         0.0851 
     83 H83        17.9007  -24.0118  -47.5839 H         1 UNK         0.0851 
     84 H84        17.8499  -24.4086  -45.0357 H         1 UNK         0.2976 
     85 H85        22.0971  -25.5289  -45.0475 H         1 UNK         0.3116 
     86 H86        23.6360  -25.0159  -43.6049 H         1 UNK         0.0646 
     87 H87        25.8628  -25.4740  -45.6482 H         1 UNK         0.0847 
     88 H88        24.9661  -23.9659  -45.4627 H         1 UNK         0.0847 
     89 H89        25.9649  -24.5672  -44.1511 H         1 UNK         0.0847 
     90 H90        22.7799  -27.8862  -44.2236 H         1 UNK         0.3040 
     91 H91        24.8385  -29.5284  -42.9934 H         1 UNK         0.1015 
     92 H92        23.0725  -31.2641  -42.9735 H         1 UNK         0.0786 
     93 H93        23.1229  -30.4840  -44.5435 H         1 UNK         0.0786 
     94 H94        21.8458  -30.0805  -43.3934 H         1 UNK         0.0786 
     95 H95        22.4413  -27.3787  -41.7664 H         1 UNK         0.3172 
     96 H96        21.6472  -26.7925  -39.7654 H         1 UNK         0.0595 
     97 H97        24.2934  -27.8953  -38.6856 H         1 UNK         0.0839 
     98 H98        23.2759  -26.6864  -37.9163 H         1 UNK         0.0839 
     99 H99        24.0865  -26.3089  -39.4261 H         1 UNK         0.0839 
    100 H100       20.8871  -29.4330  -40.6465 H         1 UNK         0.2998 
    101 H101       19.7476  -31.2234  -40.1181 H         1 UNK         0.0822 
    102 H102       18.3824  -31.3184  -38.0721 H         1 UNK         0.0787 
    103 H103       18.3526  -29.6871  -38.7146 H         1 UNK         0.0787 
    104 H104       19.3500  -30.0662  -37.3111 H         1 UNK         0.0787 
    105 H105       22.7729  -31.0298  -39.3411 H         1 UNK         0.3055 
    106 H106       23.0394  -33.3261  -37.5032 H         1 UNK         0.1106 
    107 H107       24.6189  -31.3893  -37.3569 H         1 UNK         0.0828 
    108 H108       25.4543  -32.8831  -37.7505 H         1 UNK         0.0828 
    109 H109       25.1510  -31.6945  -39.0094 H         1 UNK         0.0828 
    110 H110       21.4839  -34.1287  -39.4772 H         1 UNK         0.2931 
    111 H111       22.9781  -35.1768  -41.7656 H         1 UNK         0.0412 
    112 H112       22.5182  -38.2207  -39.2199 H         1 UNK         0.3472 
    113 H113       22.5155  -36.5490  -38.7124 H         1 UNK         0.3472 
    114 H114       20.7483  -35.6787  -42.7138 H         1 UNK         0.0970 
    115 H115       19.9795  -35.2608  -41.2002 H         1 UNK         0.0970 
    116 H116       18.6727  -33.8464  -43.4418 H         1 UNK         0.0612 
    117 H117       18.4325  -33.3343  -41.7840 H         1 UNK         0.0612 
@<TRIPOS>BOND
     1    1    2 1    
     2    1   62 1    
     3    1   63 1    
     4    1   64 1    
     5    2    3 2    
     6    2    4 am   BACKBONE|DICT|INTERRES
     7    4    5 1    
     8    4   65 1    
     9    5    6 1    
    10    5   25 1    
    11    5   66 1    
    12    6    7 1    
    13    6   67 1    
    14    6   68 1    
    15    7    8 1    
    16    8    9 1    
    17    8   69 1    
    18    8   70 1    
    19    9   10 ar   
    20    9   14 ar   
    21   10   11 ar   
    22   10   71 1    
    23   11   12 ar   
    24   11   61 1    
    25   12   13 ar   
    26   12   72 1    
    27   13   14 ar   
    28   13   15 1    
    29   14   73 1    
    30   15   16 1    
    31   15   74 1    
    32   15   75 1    
    33   16   17 1    
    34   17   18 1    
    35   17   76 1    
    36   17   77 1    
    37   18   19 1    
    38   18   27 1    
    39   18   78 1    
    40   19   20 am   BACKBONE|DICT|INTERRES
    41   19   79 1    
    42   20   21 2    
    43   20   22 1    
    44   22   23 1    
    45   22   24 1    
    46   22   80 1    
    47   23   81 1    
    48   23   82 1    
    49   23   83 1    
    50   24   25 am   BACKBONE|DICT|INTERRES
    51   24   84 1    
    52   25   26 2    
    53   27   28 2    
    54   27   29 am   BACKBONE|DICT|INTERRES
    55   29   30 1    
    56   29   85 1    
    57   30   31 1    
    58   30   32 1    
    59   30   86 1    
    60   31   87 1    
    61   31   88 1    
    62   31   89 1    
    63   32   33 2    
    64   32   34 am   BACKBONE|DICT|INTERRES
    65   34   35 1    
    66   34   90 1    
    67   35   36 1    
    68   35   37 1    
    69   35   91 1    
    70   36   92 1    
    71   36   93 1    
    72   36   94 1    
    73   37   38 2    
    74   37   39 am   BACKBONE|DICT|INTERRES
    75   39   40 1    
    76   39   95 1    
    77   40   41 1    
    78   40   42 1    
    79   40   96 1    
    80   41   97 1    
    81   41   98 1    
    82   41   99 1    
    83   42   43 2    
    84   42   44 am   BACKBONE|DICT|INTERRES
    85   44   45 1    
    86   44  100 1    
    87   45   46 1    
    88   45   47 1    
    89   45  101 1    
    90   46  102 1    
    91   46  103 1    
    92   46  104 1    
    93   47   48 2    
    94   47   49 am   BACKBONE|DICT|INTERRES
    95   49   50 1    
    96   49  105 1    
    97   50   51 1    
    98   50   52 1    
    99   50  106 1    
   100   51  107 1    
   101   51  108 1    
   102   51  109 1    
   103   52   53 2    
   104   52   54 am   BACKBONE|DICT|INTERRES
   105   54   55 1    
   106   54  110 1    
   107   55   56 1    
   108   55   59 1    
   109   55  111 1    
   110   56   57 am   BACKBONE|DICT|INTERRES
   111   56   58 2    
   112   57  112 1    
   113   57  113 1    
   114   59   60 1    
   115   59  114 1    
   116   59  115 1    
   117   60   61 1    
   118   61  116 1    
   119   61  117 1    
@<TRIPOS>SUBSTRUCTURE
     1 UNK         1 GROUP             0       ****    0 ROOT    
