@<TRIPOS>MOLECULE
3R8
117   119    1
SMALL
USER_CHARGES


@<TRIPOS>ATOM
      1 CA         12.9818  -22.6981  -44.6977 C.3       0 UNK        -0.2013 
      2 C          14.1421  -23.5057  -45.2605 C.2       0 UNK         0.4866 
      3 O          14.4882  -23.3463  -46.4318 O.2       0 UNK        -0.5176 
      4 N          14.7392  -24.3781  -44.4395 N.am      1 UNK        -0.4884 
      5 CA         15.8982  -25.2021  -44.7964 C.3       1 UNK         0.0853 
      6 C6         16.1711  -26.2990  -43.7411 C.3       10 UNK        -0.0849 
      7 S7         14.8486  -27.5479  -43.6145 S.3       10 UNK        -0.2776 
      8 C8         15.6939  -29.0467  -44.2447 C.3       10 UNK         0.0316 
      9 C9         16.9009  -29.5499  -43.4406 C.ar      10 UNK        -0.0863 
     10 C10        17.6139  -30.6472  -43.9404 C.ar      10 UNK        -0.1009 
     11 C11        18.7276  -31.1537  -43.2620 C.ar      10 UNK        -0.0712 
     12 C12        19.1317  -30.5457  -42.0711 C.ar      10 UNK        -0.0894 
     13 C13        18.4531  -29.4360  -41.5680 C.ar      10 UNK        -0.0745 
     14 C14        17.3256  -28.9603  -42.2400 C.ar      10 UNK        -0.0972 
     15 C15        18.9421  -28.7586  -40.2968 C.3       10 UNK         0.0209 
     16 S16        20.5551  -27.9447  -40.5388 S.3       10 UNK        -0.2568 
     17 C17        20.1365  -26.4614  -41.5243 C.3       10 UNK        -0.0983 
     18 CA         20.8861  -26.3873  -42.8846 C.3       3 UNK         0.0876 
     19 N          20.2208  -25.4440  -43.7977 N.am      3 UNK        -0.4424 
     20 C          20.3131  -25.4394  -45.1352 C.2       2 UNK         0.4918 
     21 O          20.9972  -26.2439  -45.7703 O.2       2 UNK        -0.4875 
     22 CA         19.4733  -24.3875  -45.8776 C.3       2 UNK         0.0481 
     23 CB         19.8920  -24.2288  -47.3511 C.3       2 UNK        -0.1831 
     24 N          18.0781  -24.8133  -45.8173 N.am      2 UNK        -0.4498 
     25 C          17.1762  -24.3542  -44.9424 C.2       1 UNK         0.5027 
     26 O          17.3657  -23.3874  -44.1993 O.2       1 UNK        -0.4969 
     27 C          22.4055  -26.0930  -42.7485 C.2       3 UNK         0.5005 
     28 O          22.9374  -26.0189  -41.6390 O.2       3 UNK        -0.5279 
     29 N          23.0969  -25.9402  -43.8871 N.am      4 UNK        -0.4463 
     30 CA         24.5369  -25.6741  -43.9891 C.3       4 UNK         0.0283 
     31 CB         24.8814  -25.3192  -45.4443 C.3       4 UNK        -0.1875 
     32 C          25.4103  -26.8420  -43.4965 C.2       4 UNK         0.4949 
     33 O          26.5577  -26.6223  -43.1095 O.2       4 UNK        -0.5039 
     34 N          24.8416  -28.0548  -43.4965 N.am      5 UNK        -0.4663 
     35 CA         25.4425  -29.2739  -42.9563 C.3       5 UNK         0.0242 
     36 CB         24.6922  -30.4836  -43.5373 C.3       5 UNK        -0.1982 
     37 C          25.4394  -29.3365  -41.4169 C.2       5 UNK         0.5017 
     38 O          26.0618  -30.2462  -40.8712 O.2       5 UNK        -0.5012 
     39 N          24.7262  -28.4164  -40.7434 N.am      6 UNK        -0.4439 
     40 CA         24.5576  -28.3319  -39.2856 C.3       6 UNK         0.0297 
     41 CB         25.8799  -27.9165  -38.6066 C.3       6 UNK        -0.2006 
     42 C          23.9502  -29.6182  -38.6897 C.2       6 UNK         0.4892 
     43 O          24.4773  -30.1686  -37.7218 O.2       6 UNK        -0.5089 
     44 N          22.8616  -30.0783  -39.3219 N.am      7 UNK        -0.4243 
     45 CA         22.0664  -31.2738  -39.0164 C.3       7 UNK         0.0196 
     46 CB         21.4956  -31.2215  -37.5837 C.3       7 UNK        -0.2007 
     47 C          22.7538  -32.6196  -39.3204 C.2       7 UNK         0.5020 
     48 O          22.1473  -33.6592  -39.0593 O.2       7 UNK        -0.5147 
     49 N          23.9622  -32.6152  -39.9069 N.am      8 UNK        -0.4734 
     50 CA         24.7058  -33.8329  -40.2682 C.3       8 UNK         0.0238 
     51 CB         26.1391  -33.4670  -40.6829 C.3       8 UNK        -0.1912 
     52 C          24.0285  -34.6846  -41.3592 C.2       8 UNK         0.5038 
     53 O          24.2641  -35.8924  -41.4093 O.2       8 UNK        -0.5046 
     54 N          23.1889  -34.0519  -42.1889 N.am      9 UNK        -0.4200 
     55 CA         22.2885  -34.7101  -43.1472 C.3       9 UNK         0.0839 
     56 C          21.0511  -35.4067  -42.5052 C.2       9 UNK         0.5513 
     57 N          20.7872  -35.2639  -41.2109 N.am      9 UNK        -0.7519 
     58 O          20.3166  -36.1037  -43.2003 O.2       9 UNK        -0.4960 
     59 C59        21.8928  -33.7660  -44.3177 C.3       10 UNK        -0.0876 
     60 S60        21.2851  -32.1249  -43.7945 S.3       10 UNK        -0.2414 
     61 C61        19.4778  -32.3684  -43.7994 C.3       10 UNK         0.0169 
     62 H62        12.0780  -22.8858  -45.2769 H         1 UNK         0.0903 
     63 H63        12.7760  -22.9499  -43.6575 H         1 UNK         0.0903 
     64 H64        13.2059  -21.6330  -44.7508 H         1 UNK         0.0903 
     65 H65        14.4190  -24.4658  -43.4855 H         1 UNK         0.3096 
     66 H66        15.6884  -25.6790  -45.7569 H         1 UNK         0.1121 
     67 H67        17.1092  -26.8104  -43.9666 H         1 UNK         0.0849 
     68 H68        16.3092  -25.8522  -42.7540 H         1 UNK         0.0849 
     69 H69        14.9571  -29.8496  -44.2955 H         1 UNK         0.0865 
     70 H70        16.0075  -28.8560  -45.2723 H         1 UNK         0.0865 
     71 H71        17.2951  -31.1142  -44.8627 H         1 UNK         0.1346 
     72 H72        19.9928  -30.9267  -41.5440 H         1 UNK         0.1412 
     73 H73        16.7943  -28.1204  -41.8186 H         1 UNK         0.1426 
     74 H74        18.2178  -28.0295  -39.9304 H         1 UNK         0.0716 
     75 H75        19.0437  -29.5093  -39.5116 H         1 UNK         0.0716 
     76 H76        19.0596  -26.4661  -41.6996 H         1 UNK         0.0695 
     77 H77        20.3335  -25.5726  -40.9222 H         1 UNK         0.0695 
     78 H78        20.8101  -27.3769  -43.3420 H         1 UNK         0.0983 
     79 H79        19.6557  -24.7301  -43.3594 H         1 UNK         0.3095 
     80 H80        19.6145  -23.4249  -45.3818 H         1 UNK         0.0454 
     81 H81        19.7724  -25.1558  -47.9133 H         1 UNK         0.0851 
     82 H82        19.3009  -23.4594  -47.8479 H         1 UNK         0.0851 
     83 H83        20.9390  -23.9330  -47.4287 H         1 UNK         0.0851 
     84 H84        17.8491  -25.6323  -46.3641 H         1 UNK         0.2976 
     85 H85        22.5790  -26.0329  -44.7578 H         1 UNK         0.3116 
     86 H86        24.7630  -24.8096  -43.3614 H         1 UNK         0.0646 
     87 H87        25.9428  -25.0899  -45.5496 H         1 UNK         0.0847 
     88 H88        24.3277  -24.4429  -45.7816 H         1 UNK         0.0847 
     89 H89        24.6566  -26.1414  -46.1250 H         1 UNK         0.0847 
     90 H90        23.9013  -28.1336  -43.8554 H         1 UNK         0.3040 
     91 H91        26.4845  -29.3219  -43.2808 H         1 UNK         0.1015 
     92 H92        23.6509  -30.4956  -43.2161 H         1 UNK         0.0786 
     93 H93        25.1440  -31.4221  -43.2154 H         1 UNK         0.0786 
     94 H94        24.7083  -30.4787  -44.6273 H         1 UNK         0.0786 
     95 H95        24.2399  -27.7017  -41.2747 H         1 UNK         0.3172 
     96 H96        23.8311  -27.5374  -39.1072 H         1 UNK         0.0595 
     97 H97        25.7342  -27.7498  -37.5386 H         1 UNK         0.0839 
     98 H98        26.2680  -26.9897  -39.0290 H         1 UNK         0.0839 
     99 H99        26.6495  -28.6818  -38.7132 H         1 UNK         0.0839 
    100 H100       22.5189  -29.5264  -40.0977 H         1 UNK         0.2998 
    101 H101       21.2141  -31.2312  -39.6926 H         1 UNK         0.0822 
    102 H102       20.9803  -30.2793  -37.3967 H         1 UNK         0.0787 
    103 H103       20.7722  -32.0215  -37.4215 H         1 UNK         0.0787 
    104 H104       22.2749  -31.3354  -36.8299 H         1 UNK         0.0787 
    105 H105       24.4256  -31.7301  -40.0722 H         1 UNK         0.3055 
    106 H106       24.7641  -34.4559  -39.3727 H         1 UNK         0.1106 
    107 H107       26.7308  -34.3636  -40.8727 H         1 UNK         0.0828 
    108 H108       26.1576  -32.8689  -41.5937 H         1 UNK         0.0828 
    109 H109       26.6486  -32.9034  -39.9010 H         1 UNK         0.0828 
    110 H110       23.0490  -33.0601  -42.0692 H         1 UNK         0.2931 
    111 H111       22.8572  -35.5254  -43.5987 H         1 UNK         0.0412 
    112 H112       19.9834  -35.7318  -40.8236 H         1 UNK         0.3472 
    113 H113       21.3786  -34.7064  -40.6052 H         1 UNK         0.3472 
    114 H114       22.7727  -33.5930  -44.9391 H         1 UNK         0.0970 
    115 H115       21.1657  -34.2371  -44.9821 H         1 UNK         0.0970 
    116 H116       19.1584  -32.6012  -44.8163 H         1 UNK         0.0612 
    117 H117       19.2231  -33.2304  -43.1827 H         1 UNK         0.0612 
@<TRIPOS>BOND
     1    1    2 1    
     2    1   62 1    
     3    1   63 1    
     4    1   64 1    
     5    2    3 2    
     6    2    4 am   BACKBONE|DICT|INTERRES
     7    4    5 1    
     8    4   65 1    
     9    5    6 1    
    10    5   25 1    
    11    5   66 1    
    12    6    7 1    
    13    6   67 1    
    14    6   68 1    
    15    7    8 1    
    16    8    9 1    
    17    8   69 1    
    18    8   70 1    
    19    9   10 ar   
    20    9   14 ar   
    21   10   11 ar   
    22   10   71 1    
    23   11   12 ar   
    24   11   61 1    
    25   12   13 ar   
    26   12   72 1    
    27   13   14 ar   
    28   13   15 1    
    29   14   73 1    
    30   15   16 1    
    31   15   74 1    
    32   15   75 1    
    33   16   17 1    
    34   17   18 1    
    35   17   76 1    
    36   17   77 1    
    37   18   19 1    
    38   18   27 1    
    39   18   78 1    
    40   19   20 am   BACKBONE|DICT|INTERRES
    41   19   79 1    
    42   20   21 2    
    43   20   22 1    
    44   22   23 1    
    45   22   24 1    
    46   22   80 1    
    47   23   81 1    
    48   23   82 1    
    49   23   83 1    
    50   24   25 am   BACKBONE|DICT|INTERRES
    51   24   84 1    
    52   25   26 2    
    53   27   28 2    
    54   27   29 am   BACKBONE|DICT|INTERRES
    55   29   30 1    
    56   29   85 1    
    57   30   31 1    
    58   30   32 1    
    59   30   86 1    
    60   31   87 1    
    61   31   88 1    
    62   31   89 1    
    63   32   33 2    
    64   32   34 am   BACKBONE|DICT|INTERRES
    65   34   35 1    
    66   34   90 1    
    67   35   36 1    
    68   35   37 1    
    69   35   91 1    
    70   36   92 1    
    71   36   93 1    
    72   36   94 1    
    73   37   38 2    
    74   37   39 am   BACKBONE|DICT|INTERRES
    75   39   40 1    
    76   39   95 1    
    77   40   41 1    
    78   40   42 1    
    79   40   96 1    
    80   41   97 1    
    81   41   98 1    
    82   41   99 1    
    83   42   43 2    
    84   42   44 am   BACKBONE|DICT|INTERRES
    85   44   45 1    
    86   44  100 1    
    87   45   46 1    
    88   45   47 1    
    89   45  101 1    
    90   46  102 1    
    91   46  103 1    
    92   46  104 1    
    93   47   48 2    
    94   47   49 am   BACKBONE|DICT|INTERRES
    95   49   50 1    
    96   49  105 1    
    97   50   51 1    
    98   50   52 1    
    99   50  106 1    
   100   51  107 1    
   101   51  108 1    
   102   51  109 1    
   103   52   53 2    
   104   52   54 am   BACKBONE|DICT|INTERRES
   105   54   55 1    
   106   54  110 1    
   107   55   56 1    
   108   55   59 1    
   109   55  111 1    
   110   56   57 am   BACKBONE|DICT|INTERRES
   111   56   58 2    
   112   57  112 1    
   113   57  113 1    
   114   59   60 1    
   115   59  114 1    
   116   59  115 1    
   117   60   61 1    
   118   61  116 1    
   119   61  117 1    
@<TRIPOS>SUBSTRUCTURE
     1 UNK         1 GROUP             0       ****    0 ROOT    
