@<TRIPOS>MOLECULE
3R8
117   119    1
SMALL
USER_CHARGES


@<TRIPOS>ATOM
      1 CA         14.6854  -22.3140  -43.9824 C.3       0 UNK        -0.2013 
      2 C          15.8583  -22.9091  -44.7468 C.2       0 UNK         0.4866 
      3 O          16.5943  -22.1766  -45.4090 O.2       0 UNK        -0.5176 
      4 N          16.0341  -24.2333  -44.6685 N.am      1 UNK        -0.4884 
      5 CA         17.1464  -24.9742  -45.2675 C.3       1 UNK         0.0853 
      6 C6         16.8548  -26.5017  -45.3572 C.3       10 UNK        -0.0849 
      7 S7         16.1563  -27.2381  -43.8326 S.3       10 UNK        -0.2776 
      8 C8         15.7314  -28.9255  -44.3688 C.3       10 UNK         0.0316 
      9 C9         16.8791  -29.9026  -44.1504 C.ar      10 UNK        -0.0863 
     10 C10        16.9788  -30.6170  -42.9515 C.ar      10 UNK        -0.1009 
     11 C11        18.0027  -31.5513  -42.7626 C.ar      10 UNK        -0.0712 
     12 C12        18.9464  -31.7512  -43.7748 C.ar      10 UNK        -0.0894 
     13 C13        18.8636  -31.0366  -44.9729 C.ar      10 UNK        -0.0745 
     14 C14        17.8190  -30.1246  -45.1600 C.ar      10 UNK        -0.0972 
     15 C15        19.8873  -31.2724  -46.0754 C.3       10 UNK         0.0209 
     16 S16        21.4652  -30.4188  -45.7556 S.3       10 UNK        -0.2568 
     17 C17        20.9644  -28.6659  -45.8331 C.3       10 UNK        -0.0983 
     18 CA         21.5265  -27.7623  -44.7073 C.3       3 UNK         0.0876 
     19 N          21.1472  -26.3749  -44.9748 N.am      3 UNK        -0.4424 
     20 C          21.5411  -25.2826  -44.3080 C.2       2 UNK         0.4918 
     21 O          22.3582  -25.2938  -43.3879 O.2       2 UNK        -0.4875 
     22 CA         20.8402  -23.9689  -44.7047 C.3       2 UNK         0.0481 
     23 CB         21.6824  -23.1998  -45.7340 C.3       2 UNK        -0.1831 
     24 N          19.4849  -24.1856  -45.2373 N.am      2 UNK        -0.4498 
     25 C          18.4627  -24.6773  -44.5186 C.2       1 UNK         0.5027 
     26 O          18.5497  -24.9364  -43.3177 O.2       1 UNK        -0.4969 
     27 C          21.1574  -28.2303  -43.2751 C.2       3 UNK         0.5005 
     28 O          21.8312  -29.1157  -42.7497 O.2       3 UNK        -0.5279 
     29 N          20.1852  -27.5782  -42.6122 N.am      4 UNK        -0.4463 
     30 CA         19.8588  -27.8077  -41.1985 C.3       4 UNK         0.0283 
     31 CB         18.6144  -26.9994  -40.8052 C.3       4 UNK        -0.1875 
     32 C          21.0149  -27.5044  -40.2224 C.2       4 UNK         0.4949 
     33 O          21.0145  -28.0374  -39.1131 O.2       4 UNK        -0.5039 
     34 N          21.9762  -26.6690  -40.6415 N.am      5 UNK        -0.4663 
     35 CA         23.1914  -26.3546  -39.8879 C.3       5 UNK         0.0242 
     36 CB         23.5193  -24.8649  -40.0900 C.3       5 UNK        -0.1982 
     37 C          24.3922  -27.2331  -40.2917 C.2       5 UNK         0.5017 
     38 O          25.4486  -27.1034  -39.6707 O.2       5 UNK        -0.5012 
     39 N          24.2438  -28.0824  -41.3191 N.am      6 UNK        -0.4439 
     40 CA         25.2984  -28.9640  -41.8229 C.3       6 UNK         0.0297 
     41 CB         25.1096  -29.1572  -43.3387 C.3       6 UNK        -0.2006 
     42 C          25.2801  -30.3199  -41.1010 C.2       6 UNK         0.4892 
     43 O          24.2884  -30.6749  -40.4604 O.2       6 UNK        -0.5089 
     44 N          26.3675  -31.0850  -41.2745 N.am      7 UNK        -0.4243 
     45 CA         26.5587  -32.4383  -40.7320 C.3       7 UNK         0.0196 
     46 CB         28.0084  -32.8799  -40.9928 C.3       7 UNK        -0.2007 
     47 C          25.5686  -33.4928  -41.2684 C.2       7 UNK         0.5020 
     48 O          25.4465  -34.5636  -40.6739 O.2       7 UNK        -0.5147 
     49 N          24.8666  -33.1723  -42.3639 N.am      8 UNK        -0.4734 
     50 CA         23.7468  -33.9440  -42.9096 C.3       8 UNK         0.0238 
     51 CB         23.4696  -33.4593  -44.3422 C.3       8 UNK        -0.1912 
     52 C          22.4633  -33.8602  -42.0567 C.2       8 UNK         0.5038 
     53 O          21.5378  -34.6342  -42.3054 O.2       8 UNK        -0.5046 
     54 N          22.4195  -32.9349  -41.0909 N.am      9 UNK        -0.4200 
     55 CA         21.3162  -32.7157  -40.1526 C.3       9 UNK         0.0839 
     56 C          21.8166  -32.7309  -38.6798 C.2       9 UNK         0.5513 
     57 N          20.9476  -32.4324  -37.7243 N.am      9 UNK        -0.7519 
     58 O          22.9697  -33.0380  -38.3827 O.2       9 UNK        -0.4960 
     59 C59        20.5402  -31.4273  -40.5366 C.3       10 UNK        -0.0876 
     60 S60        18.7739  -31.4801  -40.0805 S.3       10 UNK        -0.2414 
     61 C61        18.0571  -32.3834  -41.4884 C.3       10 UNK         0.0169 
     62 H62        14.0102  -21.8035  -44.6686 H         1 UNK         0.0903 
     63 H63        14.1161  -23.0766  -43.4511 H         1 UNK         0.0903 
     64 H64        15.0430  -21.5881  -43.2526 H         1 UNK         0.0903 
     65 H65        15.4262  -24.7898  -44.0828 H         1 UNK         0.3096 
     66 H66        17.2608  -24.6112  -46.2916 H         1 UNK         0.1121 
     67 H67        16.1370  -26.6722  -46.1612 H         1 UNK         0.0849 
     68 H68        17.7505  -27.0560  -45.6427 H         1 UNK         0.0849 
     69 H69        15.4241  -28.9225  -45.4157 H         1 UNK         0.0865 
     70 H70        14.8585  -29.2575  -43.8047 H         1 UNK         0.0865 
     71 H71        16.2480  -30.4607  -42.1696 H         1 UNK         0.1346 
     72 H72        19.7428  -32.4701  -43.6350 H         1 UNK         0.1412 
     73 H73        17.7354  -29.5863  -46.0940 H         1 UNK         0.1426 
     74 H74        19.4951  -30.9516  -47.0418 H         1 UNK         0.0716 
     75 H75        20.0809  -32.3422  -46.1668 H         1 UNK         0.0716 
     76 H76        19.8797  -28.5853  -45.8586 H         1 UNK         0.0695 
     77 H77        21.3037  -28.2914  -46.8003 H         1 UNK         0.0695 
     78 H78        22.6161  -27.8024  -44.7654 H         1 UNK         0.0983 
     79 H79        20.4847  -26.2403  -45.7230 H         1 UNK         0.3095 
     80 H80        20.7558  -23.3553  -43.8054 H         1 UNK         0.0454 
     81 H81        21.7921  -23.7548  -46.6666 H         1 UNK         0.0851 
     82 H82        22.6854  -23.0075  -45.3502 H         1 UNK         0.0851 
     83 H83        21.2375  -22.2325  -45.9681 H         1 UNK         0.0851 
     84 H84        19.3381  -23.9573  -46.2109 H         1 UNK         0.2976 
     85 H85        19.6815  -26.8291  -43.0717 H         1 UNK         0.3116 
     86 H86        19.6090  -28.8630  -41.0993 H         1 UNK         0.0646 
     87 H87        17.7626  -27.2505  -41.4346 H         1 UNK         0.0847 
     88 H88        18.7886  -25.9258  -40.8795 H         1 UNK         0.0847 
     89 H89        18.3236  -27.2106  -39.7754 H         1 UNK         0.0847 
     90 H90        21.9108  -26.2682  -41.5713 H         1 UNK         0.3040 
     91 H91        23.0201  -26.5194  -38.8218 H         1 UNK         0.1015 
     92 H92        22.6865  -24.2304  -39.7865 H         1 UNK         0.0786 
     93 H93        23.7506  -24.6400  -41.1318 H         1 UNK         0.0786 
     94 H94        24.3837  -24.5691  -39.4938 H         1 UNK         0.0786 
     95 H95        23.3168  -28.2356  -41.7041 H         1 UNK         0.3172 
     96 H96        26.2717  -28.4969  -41.6575 H         1 UNK         0.0595 
     97 H97        24.2110  -29.7302  -43.5696 H         1 UNK         0.0839 
     98 H98        25.9529  -29.6927  -43.7761 H         1 UNK         0.0839 
     99 H99        25.0384  -28.1996  -43.8548 H         1 UNK         0.0839 
    100 H100       27.1300  -30.7160  -41.8251 H         1 UNK         0.2998 
    101 H101       26.4053  -32.3829  -39.6520 H         1 UNK         0.0822 
    102 H102       28.7219  -32.1935  -40.5365 H         1 UNK         0.0787 
    103 H103       28.1986  -33.8678  -40.5704 H         1 UNK         0.0787 
    104 H104       28.2274  -32.9349  -42.0600 H         1 UNK         0.0787 
    105 H105       25.0457  -32.2749  -42.7895 H         1 UNK         0.3055 
    106 H106       24.0382  -34.9960  -42.9487 H         1 UNK         0.1106 
    107 H107       22.6473  -34.0156  -44.7947 H         1 UNK         0.0828 
    108 H108       23.1964  -32.4040  -44.3603 H         1 UNK         0.0828 
    109 H109       24.3404  -33.5930  -44.9840 H         1 UNK         0.0828 
    110 H110       23.2311  -32.3475  -40.9259 H         1 UNK         0.2931 
    111 H111       20.6384  -33.5677  -40.2248 H         1 UNK         0.0412 
    112 H112       20.0014  -32.1722  -37.9617 H         1 UNK         0.3472 
    113 H113       21.2444  -32.4457  -36.7611 H         1 UNK         0.3472 
    114 H114       20.6034  -31.2446  -41.6095 H         1 UNK         0.0970 
    115 H115       21.0062  -30.5542  -40.0782 H         1 UNK         0.0970 
    116 H116       18.6212  -33.3028  -41.6539 H         1 UNK         0.0612 
    117 H117       17.0463  -32.6946  -41.2210 H         1 UNK         0.0612 
@<TRIPOS>BOND
     1    1    2 1    
     2    1   62 1    
     3    1   63 1    
     4    1   64 1    
     5    2    3 2    
     6    2    4 am   BACKBONE|DICT|INTERRES
     7    4    5 1    
     8    4   65 1    
     9    5    6 1    
    10    5   25 1    
    11    5   66 1    
    12    6    7 1    
    13    6   67 1    
    14    6   68 1    
    15    7    8 1    
    16    8    9 1    
    17    8   69 1    
    18    8   70 1    
    19    9   10 ar   
    20    9   14 ar   
    21   10   11 ar   
    22   10   71 1    
    23   11   12 ar   
    24   11   61 1    
    25   12   13 ar   
    26   12   72 1    
    27   13   14 ar   
    28   13   15 1    
    29   14   73 1    
    30   15   16 1    
    31   15   74 1    
    32   15   75 1    
    33   16   17 1    
    34   17   18 1    
    35   17   76 1    
    36   17   77 1    
    37   18   19 1    
    38   18   27 1    
    39   18   78 1    
    40   19   20 am   BACKBONE|DICT|INTERRES
    41   19   79 1    
    42   20   21 2    
    43   20   22 1    
    44   22   23 1    
    45   22   24 1    
    46   22   80 1    
    47   23   81 1    
    48   23   82 1    
    49   23   83 1    
    50   24   25 am   BACKBONE|DICT|INTERRES
    51   24   84 1    
    52   25   26 2    
    53   27   28 2    
    54   27   29 am   BACKBONE|DICT|INTERRES
    55   29   30 1    
    56   29   85 1    
    57   30   31 1    
    58   30   32 1    
    59   30   86 1    
    60   31   87 1    
    61   31   88 1    
    62   31   89 1    
    63   32   33 2    
    64   32   34 am   BACKBONE|DICT|INTERRES
    65   34   35 1    
    66   34   90 1    
    67   35   36 1    
    68   35   37 1    
    69   35   91 1    
    70   36   92 1    
    71   36   93 1    
    72   36   94 1    
    73   37   38 2    
    74   37   39 am   BACKBONE|DICT|INTERRES
    75   39   40 1    
    76   39   95 1    
    77   40   41 1    
    78   40   42 1    
    79   40   96 1    
    80   41   97 1    
    81   41   98 1    
    82   41   99 1    
    83   42   43 2    
    84   42   44 am   BACKBONE|DICT|INTERRES
    85   44   45 1    
    86   44  100 1    
    87   45   46 1    
    88   45   47 1    
    89   45  101 1    
    90   46  102 1    
    91   46  103 1    
    92   46  104 1    
    93   47   48 2    
    94   47   49 am   BACKBONE|DICT|INTERRES
    95   49   50 1    
    96   49  105 1    
    97   50   51 1    
    98   50   52 1    
    99   50  106 1    
   100   51  107 1    
   101   51  108 1    
   102   51  109 1    
   103   52   53 2    
   104   52   54 am   BACKBONE|DICT|INTERRES
   105   54   55 1    
   106   54  110 1    
   107   55   56 1    
   108   55   59 1    
   109   55  111 1    
   110   56   57 am   BACKBONE|DICT|INTERRES
   111   56   58 2    
   112   57  112 1    
   113   57  113 1    
   114   59   60 1    
   115   59  114 1    
   116   59  115 1    
   117   60   61 1    
   118   61  116 1    
   119   61  117 1    
@<TRIPOS>SUBSTRUCTURE
     1 UNK         1 GROUP             0       ****    0 ROOT    
