@<TRIPOS>MOLECULE
3R8
117   119    1
SMALL
USER_CHARGES


@<TRIPOS>ATOM
      1 CA         17.1822  -25.7279  -47.5711 C.3       0 UNK        -0.2013 
      2 C          16.5683  -24.6769  -46.6521 C.2       0 UNK         0.4866 
      3 O          16.2337  -23.5904  -47.1197 O.2       0 UNK        -0.5176 
      4 N          16.4051  -24.9331  -45.3472 N.am      1 UNK        -0.4884 
      5 CA         16.7664  -26.1564  -44.6141 C.3       1 UNK         0.0853 
      6 C6         15.5211  -26.9027  -44.0676 C.3       10 UNK        -0.0849 
      7 S7         14.4999  -27.5650  -45.4293 S.3       10 UNK        -0.2776 
      8 C8         14.5807  -29.3698  -45.1533 C.3       10 UNK         0.0316 
      9 C9         15.9953  -29.9473  -45.1146 C.ar      10 UNK        -0.0863 
     10 C10        16.3220  -30.8941  -44.1372 C.ar      10 UNK        -0.1009 
     11 C11        17.5977  -31.4630  -44.0939 C.ar      10 UNK        -0.0712 
     12 C12        18.5526  -31.0800  -45.0362 C.ar      10 UNK        -0.0894 
     13 C13        18.2559  -30.1094  -45.9964 C.ar      10 UNK        -0.0745 
     14 C14        16.9674  -29.5679  -46.0494 C.ar      10 UNK        -0.0972 
     15 C15        19.3367  -29.6417  -46.9625 C.3       10 UNK         0.0209 
     16 S16        20.2188  -28.1670  -46.3452 S.3       10 UNK        -0.2568 
     17 C17        21.0519  -28.8239  -44.8549 C.3       10 UNK        -0.0983 
     18 CA         21.7146  -27.7534  -43.9538 C.3       3 UNK         0.0876 
     19 N          20.8197  -26.6073  -43.7588 N.am      3 UNK        -0.4424 
     20 C          20.9825  -25.5239  -42.9872 C.2       2 UNK         0.4918 
     21 O          21.9616  -25.3407  -42.2651 O.2       2 UNK        -0.4875 
     22 CA         19.8524  -24.4724  -43.0100 C.3       2 UNK         0.0481 
     23 CB         20.3854  -23.1205  -43.5117 C.3       2 UNK        -0.1831 
     24 N          18.6950  -24.8614  -43.8276 N.am      2 UNK        -0.4498 
     25 C          17.8027  -25.8177  -43.5225 C.2       1 UNK         0.5027 
     26 O          17.8167  -26.4365  -42.4581 O.2       1 UNK        -0.4969 
     27 C          22.1899  -28.4199  -42.6422 C.2       3 UNK         0.5005 
     28 O          23.2581  -29.0331  -42.6234 O.2       3 UNK        -0.5279 
     29 N          21.4142  -28.2767  -41.5574 N.am      4 UNK        -0.4463 
     30 CA         21.7744  -28.6963  -40.2011 C.3       4 UNK         0.0283 
     31 CB         20.5955  -28.4297  -39.2540 C.3       4 UNK        -0.1875 
     32 C          23.0626  -28.0371  -39.6708 C.2       4 UNK         0.4949 
     33 O          23.7809  -28.6714  -38.8998 O.2       4 UNK        -0.5039 
     34 N          23.3793  -26.8190  -40.1390 N.am      5 UNK        -0.4663 
     35 CA         24.6434  -26.1270  -39.8591 C.3       5 UNK         0.0242 
     36 CB         24.5219  -24.6528  -40.2765 C.3       5 UNK        -0.1982 
     37 C          25.8606  -26.7809  -40.5423 C.2       5 UNK         0.5017 
     38 O          26.9820  -26.5976  -40.0691 O.2       5 UNK        -0.5012 
     39 N          25.6199  -27.5495  -41.6144 N.am      6 UNK        -0.4439 
     40 CA         26.6052  -28.3877  -42.3022 C.3       6 UNK         0.0297 
     41 CB         26.3692  -28.2927  -43.8207 C.3       6 UNK        -0.2006 
     42 C          26.5513  -29.8511  -41.8148 C.2       6 UNK         0.4892 
     43 O          27.1855  -30.7092  -42.4297 O.2       6 UNK        -0.5089 
     44 N          25.8043  -30.1091  -40.7286 N.am      7 UNK        -0.4243 
     45 CA         25.5983  -31.3961  -40.0586 C.3       7 UNK         0.0196 
     46 CB         26.9261  -31.9532  -39.5004 C.3       7 UNK        -0.2007 
     47 C          24.8173  -32.4274  -40.8961 C.2       7 UNK         0.5020 
     48 O          24.9805  -33.6280  -40.6730 O.2       7 UNK        -0.5147 
     49 N          23.9540  -31.9668  -41.8163 N.am      8 UNK        -0.4734 
     50 CA         23.0765  -32.8434  -42.6064 C.3       8 UNK         0.0238 
     51 CB         22.4772  -32.0567  -43.7813 C.3       8 UNK        -0.1912 
     52 C          21.9499  -33.4757  -41.7686 C.2       8 UNK         0.5038 
     53 O          21.5521  -34.6088  -42.0410 O.2       8 UNK        -0.5046 
     54 N          21.4662  -32.7277  -40.7721 N.am      9 UNK        -0.4200 
     55 CA         20.3874  -33.1004  -39.8468 C.3       9 UNK         0.0839 
     56 C          20.4220  -32.2734  -38.5292 C.2       9 UNK         0.5513 
     57 N          21.5700  -31.7434  -38.1210 N.am      9 UNK        -0.7519 
     58 O          19.4088  -32.1202  -37.8523 O.2       9 UNK        -0.4960 
     59 C59        18.9877  -33.1696  -40.5263 C.3       10 UNK        -0.0876 
     60 S60        18.5496  -31.6917  -41.5097 S.3       10 UNK        -0.2414 
     61 C61        17.9515  -32.4899  -43.0316 C.3       10 UNK         0.0169 
     62 H62        18.1905  -25.9888  -47.2522 H         1 UNK         0.0903 
     63 H63        16.5681  -26.6268  -47.5907 H         1 UNK         0.0903 
     64 H64        17.2469  -25.3517  -48.5918 H         1 UNK         0.0903 
     65 H65        15.9981  -24.2072  -44.7726 H         1 UNK         0.3096 
     66 H66        17.2944  -26.8546  -45.2632 H         1 UNK         0.1121 
     67 H67        15.8107  -27.7277  -43.4140 H         1 UNK         0.0849 
     68 H68        14.9083  -26.2359  -43.4586 H         1 UNK         0.0849 
     69 H69        14.0254  -29.8686  -45.9486 H         1 UNK         0.0865 
     70 H70        14.0510  -29.5940  -44.2260 H         1 UNK         0.0865 
     71 H71        15.5829  -31.1952  -43.4071 H         1 UNK         0.1346 
     72 H72        19.5420  -31.5147  -44.9999 H         1 UNK         0.1412 
     73 H73        16.7262  -28.8393  -46.8098 H         1 UNK         0.1426 
     74 H74        18.8895  -29.4053  -47.9292 H         1 UNK         0.0716 
     75 H75        20.0557  -30.4414  -47.1474 H         1 UNK         0.0716 
     76 H76        21.7898  -29.5603  -45.1774 H         1 UNK         0.0695 
     77 H77        20.3093  -29.3586  -44.2648 H         1 UNK         0.0695 
     78 H78        22.6046  -27.3754  -44.4604 H         1 UNK         0.0983 
     79 H79        19.9885  -26.6388  -44.3288 H         1 UNK         0.3095 
     80 H80        19.5136  -24.3433  -41.9801 H         1 UNK         0.0454 
     81 H81        20.7453  -23.1835  -44.5394 H         1 UNK         0.0851 
     82 H82        21.2178  -22.7747  -42.8969 H         1 UNK         0.0851 
     83 H83        19.6160  -22.3494  -43.4707 H         1 UNK         0.0851 
     84 H84        18.5935  -24.3892  -44.7153 H         1 UNK         0.2976 
     85 H85        20.5451  -27.7719  -41.6615 H         1 UNK         0.3116 
     86 H86        21.9513  -29.7721  -40.2306 H         1 UNK         0.0646 
     87 H87        19.7068  -28.9812  -39.5627 H         1 UNK         0.0847 
     88 H88        20.3395  -27.3703  -39.2136 H         1 UNK         0.0847 
     89 H89        20.8322  -28.7478  -38.2377 H         1 UNK         0.0847 
     90 H90        22.7525  -26.3621  -40.7966 H         1 UNK         0.3040 
     91 H91        24.8170  -26.1640  -38.7812 H         1 UNK         0.1015 
     92 H92        25.4212  -24.0964  -40.0089 H         1 UNK         0.0786 
     93 H93        23.6808  -24.1668  -39.7816 H         1 UNK         0.0786 
     94 H94        24.3836  -24.5481  -41.3533 H         1 UNK         0.0786 
     95 H95        24.6584  -27.6870  -41.9063 H         1 UNK         0.3172 
     96 H96        27.6119  -28.0187  -42.0965 H         1 UNK         0.0595 
     97 H97        25.4099  -28.7214  -44.1114 H         1 UNK         0.0839 
     98 H98        27.1427  -28.8301  -44.3707 H         1 UNK         0.0839 
     99 H99        26.3924  -27.2579  -44.1625 H         1 UNK         0.0839 
    100 H100       25.3132  -29.3324  -40.3030 H         1 UNK         0.2998 
    101 H101       24.9602  -31.1778  -39.2012 H         1 UNK         0.0822 
    102 H102       27.4491  -31.2074  -38.9018 H         1 UNK         0.0787 
    103 H103       26.7498  -32.8156  -38.8564 H         1 UNK         0.0787 
    104 H104       27.5974  -32.2766  -40.2964 H         1 UNK         0.0787 
    105 H105       23.8870  -30.9678  -41.9852 H         1 UNK         0.3055 
    106 H106       23.6838  -33.6554  -43.0133 H         1 UNK         0.1106 
    107 H107       21.9308  -32.7196  -44.4535 H         1 UNK         0.0828 
    108 H108       23.2504  -31.5611  -44.3686 H         1 UNK         0.0828 
    109 H109       21.7748  -31.2996  -43.4339 H         1 UNK         0.0828 
    110 H110       21.8418  -31.8013  -40.6430 H         1 UNK         0.2931 
    111 H111       20.6130  -34.1135  -39.5088 H         1 UNK         0.0412 
    112 H112       21.5805  -31.2194  -37.2601 H         1 UNK         0.3472 
    113 H113       22.4356  -31.9437  -38.5920 H         1 UNK         0.3472 
    114 H114       18.9629  -34.0464  -41.1746 H         1 UNK         0.0970 
    115 H115       18.2002  -33.3466  -39.7919 H         1 UNK         0.0970 
    116 H116       17.0801  -33.1042  -42.7996 H         1 UNK         0.0612 
    117 H117       18.7188  -33.1677  -43.4100 H         1 UNK         0.0612 
@<TRIPOS>BOND
     1    1    2 1    
     2    1   62 1    
     3    1   63 1    
     4    1   64 1    
     5    2    3 2    
     6    2    4 am   BACKBONE|DICT|INTERRES
     7    4    5 1    
     8    4   65 1    
     9    5    6 1    
    10    5   25 1    
    11    5   66 1    
    12    6    7 1    
    13    6   67 1    
    14    6   68 1    
    15    7    8 1    
    16    8    9 1    
    17    8   69 1    
    18    8   70 1    
    19    9   10 ar   
    20    9   14 ar   
    21   10   11 ar   
    22   10   71 1    
    23   11   12 ar   
    24   11   61 1    
    25   12   13 ar   
    26   12   72 1    
    27   13   14 ar   
    28   13   15 1    
    29   14   73 1    
    30   15   16 1    
    31   15   74 1    
    32   15   75 1    
    33   16   17 1    
    34   17   18 1    
    35   17   76 1    
    36   17   77 1    
    37   18   19 1    
    38   18   27 1    
    39   18   78 1    
    40   19   20 am   BACKBONE|DICT|INTERRES
    41   19   79 1    
    42   20   21 2    
    43   20   22 1    
    44   22   23 1    
    45   22   24 1    
    46   22   80 1    
    47   23   81 1    
    48   23   82 1    
    49   23   83 1    
    50   24   25 am   BACKBONE|DICT|INTERRES
    51   24   84 1    
    52   25   26 2    
    53   27   28 2    
    54   27   29 am   BACKBONE|DICT|INTERRES
    55   29   30 1    
    56   29   85 1    
    57   30   31 1    
    58   30   32 1    
    59   30   86 1    
    60   31   87 1    
    61   31   88 1    
    62   31   89 1    
    63   32   33 2    
    64   32   34 am   BACKBONE|DICT|INTERRES
    65   34   35 1    
    66   34   90 1    
    67   35   36 1    
    68   35   37 1    
    69   35   91 1    
    70   36   92 1    
    71   36   93 1    
    72   36   94 1    
    73   37   38 2    
    74   37   39 am   BACKBONE|DICT|INTERRES
    75   39   40 1    
    76   39   95 1    
    77   40   41 1    
    78   40   42 1    
    79   40   96 1    
    80   41   97 1    
    81   41   98 1    
    82   41   99 1    
    83   42   43 2    
    84   42   44 am   BACKBONE|DICT|INTERRES
    85   44   45 1    
    86   44  100 1    
    87   45   46 1    
    88   45   47 1    
    89   45  101 1    
    90   46  102 1    
    91   46  103 1    
    92   46  104 1    
    93   47   48 2    
    94   47   49 am   BACKBONE|DICT|INTERRES
    95   49   50 1    
    96   49  105 1    
    97   50   51 1    
    98   50   52 1    
    99   50  106 1    
   100   51  107 1    
   101   51  108 1    
   102   51  109 1    
   103   52   53 2    
   104   52   54 am   BACKBONE|DICT|INTERRES
   105   54   55 1    
   106   54  110 1    
   107   55   56 1    
   108   55   59 1    
   109   55  111 1    
   110   56   57 am   BACKBONE|DICT|INTERRES
   111   56   58 2    
   112   57  112 1    
   113   57  113 1    
   114   59   60 1    
   115   59  114 1    
   116   59  115 1    
   117   60   61 1    
   118   61  116 1    
   119   61  117 1    
@<TRIPOS>SUBSTRUCTURE
     1 UNK         1 GROUP             0       ****    0 ROOT    
