@<TRIPOS>MOLECULE
3R8
117   119    1
SMALL
USER_CHARGES


@<TRIPOS>ATOM
      1 CA         14.9402  -23.4621  -46.6983 C.3       0 UNK        -0.2013 
      2 C          15.9358  -23.8543  -45.6165 C.2       0 UNK         0.4866 
      3 O          16.3146  -23.0087  -44.8061 O.2       0 UNK        -0.5176 
      4 N          16.3541  -25.1280  -45.6065 N.am      1 UNK        -0.4884 
      5 CA         17.3028  -25.7362  -44.6613 C.3       1 UNK         0.0853 
      6 C6         16.7674  -25.8451  -43.2056 C.3       10 UNK        -0.0849 
      7 S7         15.2250  -26.8205  -43.0865 S.3       10 UNK        -0.2776 
      8 C8         15.6631  -28.1277  -41.8774 C.3       10 UNK         0.0316 
      9 C9         16.4108  -29.3520  -42.4197 C.ar      10 UNK        -0.0863 
     10 C10        16.7719  -30.3606  -41.5179 C.ar      10 UNK        -0.1009 
     11 C11        17.4477  -31.5096  -41.9473 C.ar      10 UNK        -0.0712 
     12 C12        17.7602  -31.6500  -43.3017 C.ar      10 UNK        -0.0894 
     13 C13        17.4111  -30.6548  -44.2178 C.ar      10 UNK        -0.0745 
     14 C14        16.7276  -29.5187  -43.7736 C.ar      10 UNK        -0.0972 
     15 C15        17.7296  -30.8241  -45.6963 C.3       10 UNK         0.0209 
     16 S16        18.7513  -29.4672  -46.3529 S.3       10 UNK        -0.2568 
     17 C17        20.4177  -29.8354  -45.6837 C.3       10 UNK        -0.0983 
     18 CA         21.1373  -28.6248  -45.0221 C.3       3 UNK         0.0876 
     19 N          20.8874  -27.3877  -45.7614 N.am      3 UNK        -0.4424 
     20 C          21.5020  -26.2109  -45.5869 C.2       2 UNK         0.4918 
     21 O          22.5636  -26.0686  -44.9807 O.2       2 UNK        -0.4875 
     22 CA         20.7479  -24.9821  -46.1359 C.3       2 UNK         0.0481 
     23 CB         21.0604  -24.7668  -47.6250 C.3       2 UNK        -0.1831 
     24 N          19.2987  -25.1389  -45.9467 N.am      2 UNK        -0.4498 
     25 C          18.6978  -25.0778  -44.7467 C.2       1 UNK         0.5027 
     26 O          19.2103  -24.5569  -43.7532 O.2       1 UNK        -0.4969 
     27 C          20.7553  -28.4512  -43.5342 C.2       3 UNK         0.5005 
     28 O          19.9023  -27.6245  -43.2115 O.2       3 UNK        -0.5279 
     29 N          21.4184  -29.2241  -42.6652 N.am      4 UNK        -0.4463 
     30 CA         21.4066  -29.1632  -41.1937 C.3       4 UNK         0.0283 
     31 CB         19.9953  -29.0333  -40.5927 C.3       4 UNK        -0.1875 
     32 C          22.3650  -28.1148  -40.6067 C.2       4 UNK         0.4949 
     33 O          22.4617  -28.0210  -39.3818 O.2       4 UNK        -0.5039 
     34 N          23.1068  -27.3878  -41.4554 N.am      5 UNK        -0.4663 
     35 CA         24.2260  -26.5328  -41.0518 C.3       5 UNK         0.0242 
     36 CB         24.7410  -25.7531  -42.2719 C.3       5 UNK        -0.1982 
     37 C          25.3369  -27.3984  -40.4359 C.2       5 UNK         0.5017 
     38 O          25.8373  -28.2968  -41.1134 O.2       5 UNK        -0.5012 
     39 N          25.6298  -27.1788  -39.1461 N.am      6 UNK        -0.4439 
     40 CA         26.4880  -28.0195  -38.2961 C.3       6 UNK         0.0297 
     41 CB         27.9649  -27.9191  -38.7353 C.3       6 UNK        -0.2006 
     42 C          25.9917  -29.4811  -38.1912 C.2       6 UNK         0.4892 
     43 O          26.8064  -30.3990  -38.0870 O.2       6 UNK        -0.5089 
     44 N          24.6610  -29.6602  -38.2379 N.am      7 UNK        -0.4243 
     45 CA         23.9145  -30.9246  -38.2270 C.3       7 UNK         0.0196 
     46 CB         24.1754  -31.7246  -36.9328 C.3       7 UNK        -0.2007 
     47 C          24.0883  -31.7816  -39.4979 C.2       7 UNK         0.5020 
     48 O          23.7176  -32.9568  -39.4830 O.2       7 UNK        -0.5147 
     49 N          24.6036  -31.2002  -40.5920 N.am      8 UNK        -0.4734 
     50 CA         24.7579  -31.8649  -41.8894 C.3       8 UNK         0.0238 
     51 CB         25.8590  -31.1543  -42.6973 C.3       8 UNK        -0.1912 
     52 C          23.4212  -31.9213  -42.6517 C.2       8 UNK         0.5038 
     53 O          23.2349  -31.1923  -43.6293 O.2       8 UNK        -0.5046 
     54 N          22.4860  -32.7400  -42.1595 N.am      9 UNK        -0.4200 
     55 CA         21.2219  -33.0671  -42.8342 C.3       9 UNK         0.0839 
     56 C          21.4719  -33.9281  -44.1021 C.2       9 UNK         0.5513 
     57 N          20.7649  -33.6597  -45.1908 N.am      9 UNK        -0.7519 
     58 O          22.2711  -34.8621  -44.0911 O.2       9 UNK        -0.4960 
     59 C59        20.2343  -33.7809  -41.8767 C.3       10 UNK        -0.0876 
     60 S60        19.5963  -32.6704  -40.5746 S.3       10 UNK        -0.2414 
     61 C61        17.8098  -32.6063  -40.9503 C.3       10 UNK         0.0169 
     62 H62        14.6861  -24.3015  -47.3453 H         1 UNK         0.0903 
     63 H63        14.0202  -23.0941  -46.2449 H         1 UNK         0.0903 
     64 H64        15.3547  -22.6687  -47.3198 H         1 UNK         0.0903 
     65 H65        15.9854  -25.7605  -46.3035 H         1 UNK         0.3096 
     66 H66        17.4613  -26.7582  -45.0077 H         1 UNK         0.1121 
     67 H67        17.5232  -26.3070  -42.5669 H         1 UNK         0.0849 
     68 H68        16.5841  -24.8543  -42.7871 H         1 UNK         0.0849 
     69 H69        16.2414  -27.6829  -41.0660 H         1 UNK         0.0865 
     70 H70        14.7337  -28.4782  -41.4263 H         1 UNK         0.0865 
     71 H71        16.5257  -30.2493  -40.4706 H         1 UNK         0.1346 
     72 H72        18.2627  -32.5419  -43.6442 H         1 UNK         0.1412 
     73 H73        16.4439  -28.7732  -44.5002 H         1 UNK         0.1426 
     74 H74        16.7907  -30.8494  -46.2510 H         1 UNK         0.0716 
     75 H75        18.2239  -31.7762  -45.8928 H         1 UNK         0.0716 
     76 H76        20.3654  -30.6814  -44.9982 H         1 UNK         0.0695 
     77 H77        21.0210  -30.1851  -46.5228 H         1 UNK         0.0695 
     78 H78        22.2134  -28.8106  -45.0579 H         1 UNK         0.0983 
     79 H79        20.0189  -27.3948  -46.2737 H         1 UNK         0.3095 
     80 H80        21.0832  -24.1011  -45.5847 H         1 UNK         0.0454 
     81 H81        20.5639  -23.8755  -48.0089 H         1 UNK         0.0851 
     82 H82        22.1316  -24.6315  -47.7804 H         1 UNK         0.0851 
     83 H83        20.7479  -25.6149  -48.2353 H         1 UNK         0.0851 
     84 H84        18.7722  -25.4991  -46.7298 H         1 UNK         0.2976 
     85 H85        22.0844  -29.8914  -43.0536 H         1 UNK         0.3116 
     86 H86        21.7912  -30.1299  -40.8691 H         1 UNK         0.0646 
     87 H87        19.3099  -29.7200  -41.0778 H         1 UNK         0.0847 
     88 H88        19.5928  -28.0255  -40.6963 H         1 UNK         0.0847 
     89 H89        19.9998  -29.2721  -39.5288 H         1 UNK         0.0847 
     90 H90        22.9746  -27.5219  -42.4470 H         1 UNK         0.3040 
     91 H91        23.8642  -25.8176  -40.3099 H         1 UNK         0.1015 
     92 H92        23.9639  -25.1119  -42.6888 H         1 UNK         0.0786 
     93 H93        25.0834  -26.4202  -43.0645 H         1 UNK         0.0786 
     94 H94        25.5799  -25.1113  -41.9996 H         1 UNK         0.0786 
     95 H95        25.1442  -26.4315  -38.6676 H         1 UNK         0.3172 
     96 H96        26.4169  -27.6064  -37.2889 H         1 UNK         0.0595 
     97 H97        28.2929  -26.8814  -38.7932 H         1 UNK         0.0839 
     98 H98        28.1306  -28.3786  -39.7103 H         1 UNK         0.0839 
     99 H99        28.6196  -28.4247  -38.0244 H         1 UNK         0.0839 
    100 H100       24.0806  -28.8377  -38.3715 H         1 UNK         0.2998 
    101 H101       22.8619  -30.6372  -38.2183 H         1 UNK         0.0822 
    102 H102       25.1866  -32.1309  -36.9023 H         1 UNK         0.0787 
    103 H103       24.0343  -31.1050  -36.0472 H         1 UNK         0.0787 
    104 H104       23.4877  -32.5671  -36.8486 H         1 UNK         0.0787 
    105 H105       24.9069  -30.2343  -40.5429 H         1 UNK         0.3055 
    106 H106       25.0862  -32.8939  -41.7246 H         1 UNK         0.1106 
    107 H107       26.7982  -31.1180  -42.1452 H         1 UNK         0.0828 
    108 H108       26.0520  -31.6785  -43.6341 H         1 UNK         0.0828 
    109 H109       25.5817  -30.1312  -42.9525 H         1 UNK         0.0828 
    110 H110       22.6949  -33.2476  -41.3077 H         1 UNK         0.2931 
    111 H111       20.7641  -32.1272  -43.1475 H         1 UNK         0.0412 
    112 H112       20.9100  -34.2243  -46.0137 H         1 UNK         0.3472 
    113 H113       20.1084  -32.8988  -45.2189 H         1 UNK         0.3472 
    114 H114       20.7187  -34.6331  -41.3964 H         1 UNK         0.0970 
    115 H115       19.3934  -34.2014  -42.4301 H         1 UNK         0.0970 
    116 H116       17.2782  -32.4429  -40.0118 H         1 UNK         0.0612 
    117 H117       17.4645  -33.5731  -41.3187 H         1 UNK         0.0612 
@<TRIPOS>BOND
     1    1    2 1    
     2    1   62 1    
     3    1   63 1    
     4    1   64 1    
     5    2    3 2    
     6    2    4 am   BACKBONE|DICT|INTERRES
     7    4    5 1    
     8    4   65 1    
     9    5    6 1    
    10    5   25 1    
    11    5   66 1    
    12    6    7 1    
    13    6   67 1    
    14    6   68 1    
    15    7    8 1    
    16    8    9 1    
    17    8   69 1    
    18    8   70 1    
    19    9   10 ar   
    20    9   14 ar   
    21   10   11 ar   
    22   10   71 1    
    23   11   12 ar   
    24   11   61 1    
    25   12   13 ar   
    26   12   72 1    
    27   13   14 ar   
    28   13   15 1    
    29   14   73 1    
    30   15   16 1    
    31   15   74 1    
    32   15   75 1    
    33   16   17 1    
    34   17   18 1    
    35   17   76 1    
    36   17   77 1    
    37   18   19 1    
    38   18   27 1    
    39   18   78 1    
    40   19   20 am   BACKBONE|DICT|INTERRES
    41   19   79 1    
    42   20   21 2    
    43   20   22 1    
    44   22   23 1    
    45   22   24 1    
    46   22   80 1    
    47   23   81 1    
    48   23   82 1    
    49   23   83 1    
    50   24   25 am   BACKBONE|DICT|INTERRES
    51   24   84 1    
    52   25   26 2    
    53   27   28 2    
    54   27   29 am   BACKBONE|DICT|INTERRES
    55   29   30 1    
    56   29   85 1    
    57   30   31 1    
    58   30   32 1    
    59   30   86 1    
    60   31   87 1    
    61   31   88 1    
    62   31   89 1    
    63   32   33 2    
    64   32   34 am   BACKBONE|DICT|INTERRES
    65   34   35 1    
    66   34   90 1    
    67   35   36 1    
    68   35   37 1    
    69   35   91 1    
    70   36   92 1    
    71   36   93 1    
    72   36   94 1    
    73   37   38 2    
    74   37   39 am   BACKBONE|DICT|INTERRES
    75   39   40 1    
    76   39   95 1    
    77   40   41 1    
    78   40   42 1    
    79   40   96 1    
    80   41   97 1    
    81   41   98 1    
    82   41   99 1    
    83   42   43 2    
    84   42   44 am   BACKBONE|DICT|INTERRES
    85   44   45 1    
    86   44  100 1    
    87   45   46 1    
    88   45   47 1    
    89   45  101 1    
    90   46  102 1    
    91   46  103 1    
    92   46  104 1    
    93   47   48 2    
    94   47   49 am   BACKBONE|DICT|INTERRES
    95   49   50 1    
    96   49  105 1    
    97   50   51 1    
    98   50   52 1    
    99   50  106 1    
   100   51  107 1    
   101   51  108 1    
   102   51  109 1    
   103   52   53 2    
   104   52   54 am   BACKBONE|DICT|INTERRES
   105   54   55 1    
   106   54  110 1    
   107   55   56 1    
   108   55   59 1    
   109   55  111 1    
   110   56   57 am   BACKBONE|DICT|INTERRES
   111   56   58 2    
   112   57  112 1    
   113   57  113 1    
   114   59   60 1    
   115   59  114 1    
   116   59  115 1    
   117   60   61 1    
   118   61  116 1    
   119   61  117 1    
@<TRIPOS>SUBSTRUCTURE
     1 UNK         1 GROUP             0       ****    0 ROOT    
