@<TRIPOS>MOLECULE
3R8
117   119    1
SMALL
USER_CHARGES


@<TRIPOS>ATOM
      1 CA         17.4803  -25.5625  -49.6869 C.3       0 UNK        -0.2013 
      2 C          17.1761  -24.5861  -48.5538 C.2       0 UNK         0.4866 
      3 O          16.5408  -23.5609  -48.7930 O.2       0 UNK        -0.5176 
      4 N          17.6052  -24.8498  -47.3146 N.am      1 UNK        -0.4884 
      5 CA         18.4057  -25.9913  -46.8755 C.3       1 UNK         0.0853 
      6 C6         17.5206  -27.2188  -46.5348 C.3       10 UNK        -0.0849 
      7 S7         18.4302  -28.7911  -46.6838 S.3       10 UNK        -0.2776 
      8 C8         17.1614  -29.9797  -46.1423 C.3       10 UNK         0.0316 
      9 C9         17.0917  -30.0815  -44.6252 C.ar      10 UNK        -0.0863 
     10 C10        17.9027  -30.9979  -43.9506 C.ar      10 UNK        -0.1009 
     11 C11        17.8440  -31.1121  -42.5590 C.ar      10 UNK        -0.0712 
     12 C12        16.9507  -30.3137  -41.8417 C.ar      10 UNK        -0.0894 
     13 C13        16.1419  -29.3839  -42.5027 C.ar      10 UNK        -0.0745 
     14 C14        16.2102  -29.2782  -43.8955 C.ar      10 UNK        -0.0972 
     15 C15        15.2032  -28.4853  -41.7099 C.3       10 UNK         0.0209 
     16 S16        16.0986  -27.4406  -40.5147 S.3       10 UNK        -0.2568 
     17 C17        17.2328  -26.5040  -41.5980 C.3       10 UNK        -0.0983 
     18 CA         18.6784  -27.0690  -41.6075 C.3       3 UNK         0.0876 
     19 N          19.4663  -26.4491  -42.6757 N.am      3 UNK        -0.4424 
     20 C          20.7362  -26.7064  -43.0185 C.2       2 UNK         0.4918 
     21 O          21.4768  -27.4817  -42.4093 O.2       2 UNK        -0.4875 
     22 CA         21.2562  -25.9764  -44.2743 C.3       2 UNK         0.0481 
     23 CB         22.6841  -26.4056  -44.6580 C.3       2 UNK        -0.1831 
     24 N          20.3748  -26.1906  -45.4266 N.am      2 UNK        -0.4498 
     25 C          19.2274  -25.5406  -45.6572 C.2       1 UNK         0.5027 
     26 O          18.7875  -24.6538  -44.9185 O.2       1 UNK        -0.4969 
     27 C          19.3762  -26.9363  -40.2389 C.2       3 UNK         0.5005 
     28 O          19.3556  -25.8546  -39.6479 O.2       3 UNK        -0.5279 
     29 N          20.0360  -28.0232  -39.8071 N.am      4 UNK        -0.4463 
     30 CA         20.8793  -28.1547  -38.6095 C.3       4 UNK         0.0283 
     31 CB         20.0459  -27.9596  -37.3260 C.3       4 UNK        -0.1875 
     32 C          22.1496  -27.2748  -38.6091 C.2       4 UNK         0.4949 
     33 O          22.8780  -27.2763  -37.6159 O.2       4 UNK        -0.5039 
     34 N          22.4103  -26.5551  -39.7080 N.am      5 UNK        -0.4663 
     35 CA         23.6021  -25.7338  -39.9132 C.3       5 UNK         0.0242 
     36 CB         23.2620  -24.5566  -40.8414 C.3       5 UNK        -0.1982 
     37 C          24.7480  -26.5744  -40.4893 C.2       5 UNK         0.5017 
     38 O          25.8993  -26.3695  -40.1032 O.2       5 UNK        -0.5012 
     39 N          24.4094  -27.5204  -41.3757 N.am      6 UNK        -0.4439 
     40 CA         25.3176  -28.5599  -41.8483 C.3       6 UNK         0.0297 
     41 CB         24.9401  -28.9602  -43.2835 C.3       6 UNK        -0.2006 
     42 C          25.2213  -29.7683  -40.9100 C.2       6 UNK         0.4892 
     43 O          24.1135  -30.1536  -40.5267 O.2       6 UNK        -0.5089 
     44 N          26.3755  -30.3633  -40.5853 N.am      7 UNK        -0.4243 
     45 CA         26.4634  -31.6324  -39.8638 C.3       7 UNK         0.0196 
     46 CB         27.9023  -31.8460  -39.3648 C.3       7 UNK        -0.2007 
     47 C          26.0207  -32.7700  -40.7950 C.2       7 UNK         0.5020 
     48 O          26.6094  -32.9250  -41.8671 O.2       7 UNK        -0.5147 
     49 N          24.9800  -33.5076  -40.3828 N.am      8 UNK        -0.4734 
     50 CA         24.2585  -34.5172  -41.1702 C.3       8 UNK         0.0238 
     51 CB         25.1490  -35.7490  -41.4455 C.3       8 UNK        -0.1912 
     52 C          23.6485  -33.9070  -42.4492 C.2       8 UNK         0.5038 
     53 O          23.9652  -34.3463  -43.5571 O.2       8 UNK        -0.5046 
     54 N          22.8119  -32.8771  -42.2545 N.am      9 UNK        -0.4200 
     55 CA         22.0668  -32.1483  -43.2933 C.3       9 UNK         0.0839 
     56 C          21.2234  -33.0468  -44.2438 C.2       9 UNK         0.5513 
     57 N          20.9732  -32.5867  -45.4626 N.am      9 UNK        -0.7519 
     58 O          20.7716  -34.1328  -43.8861 O.2       9 UNK        -0.4960 
     59 C59        21.2275  -30.9793  -42.6945 C.3       10 UNK        -0.0876 
     60 S60        20.2607  -31.3718  -41.1886 S.3       10 UNK        -0.2414 
     61 C61        18.7239  -32.1146  -41.8297 C.3       10 UNK         0.0169 
     62 H62        16.8636  -25.3391  -50.5573 H         1 UNK         0.0903 
     63 H63        18.5243  -25.4820  -49.9881 H         1 UNK         0.0903 
     64 H64        17.2779  -26.5932  -49.3996 H         1 UNK         0.0903 
     65 H65        17.4423  -24.1756  -46.5756 H         1 UNK         0.3096 
     66 H66        19.1119  -26.2450  -47.6691 H         1 UNK         0.1121 
     67 H67        16.6687  -27.2768  -47.2137 H         1 UNK         0.0849 
     68 H68        17.0908  -27.1288  -45.5359 H         1 UNK         0.0849 
     69 H69        16.1893  -29.7042  -46.5545 H         1 UNK         0.0865 
     70 H70        17.3981  -30.9579  -46.5640 H         1 UNK         0.0865 
     71 H71        18.5802  -31.6246  -44.5125 H         1 UNK         0.1346 
     72 H72        16.8990  -30.3995  -40.7647 H         1 UNK         0.1412 
     73 H73        15.5776  -28.5697  -44.4122 H         1 UNK         0.1426 
     74 H74        14.4864  -29.1060  -41.1708 H         1 UNK         0.0716 
     75 H75        14.6196  -27.8446  -42.3728 H         1 UNK         0.0716 
     76 H76        17.2280  -25.4591  -41.2822 H         1 UNK         0.0695 
     77 H77        16.8241  -26.5059  -42.6099 H         1 UNK         0.0695 
     78 H78        18.6240  -28.1290  -41.8585 H         1 UNK         0.0983 
     79 H79        18.9801  -25.7605  -43.2392 H         1 UNK         0.3095 
     80 H80        21.2833  -24.9102  -44.0401 H         1 UNK         0.0454 
     81 H81        22.7355  -27.4696  -44.8914 H         1 UNK         0.0851 
     82 H82        23.3857  -26.2140  -43.8459 H         1 UNK         0.0851 
     83 H83        23.0443  -25.8544  -45.5266 H         1 UNK         0.0851 
     84 H84        20.6263  -26.9518  -46.0423 H         1 UNK         0.2976 
     85 H85        20.0332  -28.8398  -40.4058 H         1 UNK         0.3116 
     86 H86        21.2365  -29.1858  -38.6161 H         1 UNK         0.0646 
     87 H87        19.7044  -26.9301  -37.2161 H         1 UNK         0.0847 
     88 H88        19.1692  -28.6071  -37.3194 H         1 UNK         0.0847 
     89 H89        20.6315  -28.2015  -36.4382 H         1 UNK         0.0847 
     90 H90        21.7791  -26.6532  -40.4932 H         1 UNK         0.3040 
     91 H91        23.9316  -25.3274  -38.9540 H         1 UNK         0.1015 
     92 H92        24.1301  -23.9118  -40.9846 H         1 UNK         0.0786 
     93 H93        22.4664  -23.9404  -40.4217 H         1 UNK         0.0786 
     94 H94        22.9401  -24.8922  -41.8265 H         1 UNK         0.0786 
     95 H95        23.4276  -27.6502  -41.5935 H         1 UNK         0.3172 
     96 H96        26.3441  -28.1869  -41.8558 H         1 UNK         0.0595 
     97 H97        23.8998  -29.2768  -43.3571 H         1 UNK         0.0839 
     98 H98        25.5580  -29.7881  -43.6343 H         1 UNK         0.0839 
     99 H99        25.0894  -28.1317  -43.9754 H         1 UNK         0.0839 
    100 H100       27.2365  -30.0040  -40.9717 H         1 UNK         0.2998 
    101 H101       25.8014  -31.5885  -38.9959 H         1 UNK         0.0822 
    102 H102       27.9869  -32.7845  -38.8151 H         1 UNK         0.0787 
    103 H103       28.6164  -31.8856  -40.1885 H         1 UNK         0.0787 
    104 H104       28.2112  -31.0467  -38.6908 H         1 UNK         0.0787 
    105 H105       24.5687  -33.2817  -39.4869 H         1 UNK         0.3055 
    106 H106       23.4180  -34.8542  -40.5606 H         1 UNK         0.1106 
    107 H107       25.5359  -36.1737  -40.5193 H         1 UNK         0.0828 
    108 H108       24.5814  -36.5326  -41.9487 H         1 UNK         0.0828 
    109 H109       25.9991  -35.5070  -42.0839 H         1 UNK         0.0828 
    110 H110       22.6320  -32.5712  -41.3094 H         1 UNK         0.2931 
    111 H111       22.8359  -31.6940  -43.9214 H         1 UNK         0.0412 
    112 H112       20.4296  -33.1526  -46.0953 H         1 UNK         0.3472 
    113 H113       21.3398  -31.7011  -45.7749 H         1 UNK         0.3472 
    114 H114       21.9151  -30.1855  -42.4007 H         1 UNK         0.0970 
    115 H115       20.5846  -30.5167  -43.4443 H         1 UNK         0.0970 
    116 H116       18.9521  -32.9620  -42.4733 H         1 UNK         0.0612 
    117 H117       18.1707  -32.5304  -40.9864 H         1 UNK         0.0612 
@<TRIPOS>BOND
     1    1    2 1    
     2    1   62 1    
     3    1   63 1    
     4    1   64 1    
     5    2    3 2    
     6    2    4 am   BACKBONE|DICT|INTERRES
     7    4    5 1    
     8    4   65 1    
     9    5    6 1    
    10    5   25 1    
    11    5   66 1    
    12    6    7 1    
    13    6   67 1    
    14    6   68 1    
    15    7    8 1    
    16    8    9 1    
    17    8   69 1    
    18    8   70 1    
    19    9   10 ar   
    20    9   14 ar   
    21   10   11 ar   
    22   10   71 1    
    23   11   12 ar   
    24   11   61 1    
    25   12   13 ar   
    26   12   72 1    
    27   13   14 ar   
    28   13   15 1    
    29   14   73 1    
    30   15   16 1    
    31   15   74 1    
    32   15   75 1    
    33   16   17 1    
    34   17   18 1    
    35   17   76 1    
    36   17   77 1    
    37   18   19 1    
    38   18   27 1    
    39   18   78 1    
    40   19   20 am   BACKBONE|DICT|INTERRES
    41   19   79 1    
    42   20   21 2    
    43   20   22 1    
    44   22   23 1    
    45   22   24 1    
    46   22   80 1    
    47   23   81 1    
    48   23   82 1    
    49   23   83 1    
    50   24   25 am   BACKBONE|DICT|INTERRES
    51   24   84 1    
    52   25   26 2    
    53   27   28 2    
    54   27   29 am   BACKBONE|DICT|INTERRES
    55   29   30 1    
    56   29   85 1    
    57   30   31 1    
    58   30   32 1    
    59   30   86 1    
    60   31   87 1    
    61   31   88 1    
    62   31   89 1    
    63   32   33 2    
    64   32   34 am   BACKBONE|DICT|INTERRES
    65   34   35 1    
    66   34   90 1    
    67   35   36 1    
    68   35   37 1    
    69   35   91 1    
    70   36   92 1    
    71   36   93 1    
    72   36   94 1    
    73   37   38 2    
    74   37   39 am   BACKBONE|DICT|INTERRES
    75   39   40 1    
    76   39   95 1    
    77   40   41 1    
    78   40   42 1    
    79   40   96 1    
    80   41   97 1    
    81   41   98 1    
    82   41   99 1    
    83   42   43 2    
    84   42   44 am   BACKBONE|DICT|INTERRES
    85   44   45 1    
    86   44  100 1    
    87   45   46 1    
    88   45   47 1    
    89   45  101 1    
    90   46  102 1    
    91   46  103 1    
    92   46  104 1    
    93   47   48 2    
    94   47   49 am   BACKBONE|DICT|INTERRES
    95   49   50 1    
    96   49  105 1    
    97   50   51 1    
    98   50   52 1    
    99   50  106 1    
   100   51  107 1    
   101   51  108 1    
   102   51  109 1    
   103   52   53 2    
   104   52   54 am   BACKBONE|DICT|INTERRES
   105   54   55 1    
   106   54  110 1    
   107   55   56 1    
   108   55   59 1    
   109   55  111 1    
   110   56   57 am   BACKBONE|DICT|INTERRES
   111   56   58 2    
   112   57  112 1    
   113   57  113 1    
   114   59   60 1    
   115   59  114 1    
   116   59  115 1    
   117   60   61 1    
   118   61  116 1    
   119   61  117 1    
@<TRIPOS>SUBSTRUCTURE
     1 UNK         1 GROUP             0       ****    0 ROOT    
