@<TRIPOS>MOLECULE
3R8
117   119    1
SMALL
USER_CHARGES


@<TRIPOS>ATOM
      1 CA         11.7771  -24.0304  -43.9922 C.3       0 UNK        -0.2013 
      2 C          13.1287  -24.2956  -44.6386 C.2       0 UNK         0.4866 
      3 O          13.5786  -23.5011  -45.4651 O.2       0 UNK        -0.5176 
      4 N          13.7768  -25.4098  -44.2756 N.am      1 UNK        -0.4884 
      5 CA         15.1152  -25.7850  -44.7422 C.3       1 UNK         0.0853 
      6 C6         15.3889  -27.2883  -44.4874 C.3       10 UNK        -0.0849 
      7 S7         16.6643  -27.9758  -45.5977 S.3       10 UNK        -0.2776 
      8 C8         16.7497  -29.7049  -45.0189 C.3       10 UNK         0.0316 
      9 C9         17.9139  -29.9133  -44.0610 C.ar      10 UNK        -0.0863 
     10 C10        19.0796  -30.5552  -44.4919 C.ar      10 UNK        -0.1009 
     11 C11        20.1671  -30.7187  -43.6249 C.ar      10 UNK        -0.0712 
     12 C12        20.0935  -30.1965  -42.3298 C.ar      10 UNK        -0.0894 
     13 C13        18.9426  -29.5307  -41.8987 C.ar      10 UNK        -0.0745 
     14 C14        17.8417  -29.4326  -42.7520 C.ar      10 UNK        -0.0972 
     15 C15        18.9182  -28.8177  -40.5566 C.3       10 UNK         0.0209 
     16 S16        18.9349  -27.0047  -40.7831 S.3       10 UNK        -0.2568 
     17 C17        20.5076  -26.7407  -41.6777 C.3       10 UNK        -0.0983 
     18 CA         20.3455  -26.7306  -43.2314 C.3       3 UNK         0.0876 
     19 N          19.3568  -25.7741  -43.7380 N.am      3 UNK        -0.4424 
     20 C          19.4021  -24.4390  -43.6444 C.2       2 UNK         0.4918 
     21 O          20.2647  -23.8187  -43.0208 O.2       2 UNK        -0.4875 
     22 CA         18.3134  -23.6486  -44.3977 C.3       2 UNK         0.0481 
     23 CB         18.9239  -22.9265  -45.6105 C.3       2 UNK        -0.1831 
     24 N          17.1933  -24.4789  -44.8566 N.am      2 UNK        -0.4498 
     25 C          16.1848  -24.8917  -44.0773 C.2       1 UNK         0.5027 
     26 O          16.0861  -24.6131  -42.8794 O.2       1 UNK        -0.4969 
     27 C          21.6773  -26.6361  -44.0128 C.2       3 UNK         0.5005 
     28 O          21.6856  -26.1749  -45.1581 O.2       3 UNK        -0.5279 
     29 N          22.7717  -27.1204  -43.4169 N.am      4 UNK        -0.4463 
     30 CA         24.1074  -27.1945  -44.0001 C.3       4 UNK         0.0283 
     31 CB         24.1935  -28.3986  -44.9600 C.3       4 UNK        -0.1875 
     32 C          25.1244  -27.3291  -42.8616 C.2       4 UNK         0.4949 
     33 O          24.7321  -27.5572  -41.7137 O.2       4 UNK        -0.5039 
     34 N          26.4169  -27.2453  -43.2064 N.am      5 UNK        -0.4663 
     35 CA         27.5605  -27.3780  -42.2897 C.3       5 UNK         0.0242 
     36 CB         28.8586  -27.1006  -43.0657 C.3       5 UNK        -0.1982 
     37 C          27.6514  -28.7323  -41.5567 C.2       5 UNK         0.5017 
     38 O          28.3134  -28.8138  -40.5220 O.2       5 UNK        -0.5012 
     39 N          26.9624  -29.7551  -42.0829 N.am      6 UNK        -0.4439 
     40 CA         26.7498  -31.0593  -41.4500 C.3       6 UNK         0.0297 
     41 CB         26.1358  -32.0174  -42.4854 C.3       6 UNK        -0.2006 
     42 C          25.8619  -31.0068  -40.1889 C.2       6 UNK         0.4892 
     43 O          25.8492  -31.9809  -39.4370 O.2       6 UNK        -0.5089 
     44 N          25.1172  -29.9055  -39.9946 N.am      7 UNK        -0.4243 
     45 CA         24.1875  -29.5904  -38.8990 C.3       7 UNK         0.0196 
     46 CB         24.8775  -29.6586  -37.5223 C.3       7 UNK        -0.2007 
     47 C          22.8774  -30.3979  -38.9092 C.2       7 UNK         0.5020 
     48 O          21.8503  -29.8659  -38.4897 O.2       7 UNK        -0.5147 
     49 N          22.9100  -31.6376  -39.4034 N.am      8 UNK        -0.4734 
     50 CA         21.7565  -32.5056  -39.6071 C.3       8 UNK         0.0238 
     51 CB         21.5047  -33.3460  -38.3433 C.3       8 UNK        -0.1912 
     52 C          22.0350  -33.3991  -40.8197 C.2       8 UNK         0.5038 
     53 O          23.1791  -33.8166  -41.0140 O.2       8 UNK        -0.5046 
     54 N          20.9847  -33.6797  -41.5968 N.am      9 UNK        -0.4200 
     55 CA         21.0101  -34.5781  -42.7630 C.3       9 UNK         0.0839 
     56 C          20.5589  -36.0308  -42.4261 C.2       9 UNK         0.5513 
     57 N          20.1781  -36.3481  -41.1938 N.am      9 UNK        -0.7519 
     58 O          20.5713  -36.8959  -43.2981 O.2       9 UNK        -0.4960 
     59 C59        20.1966  -33.9701  -43.9419 C.3       10 UNK        -0.0876 
     60 S60        21.2086  -32.9250  -45.0455 S.3       10 UNK        -0.2414 
     61 C61        21.4550  -31.3902  -44.0901 C.3       10 UNK         0.0169 
     62 H62        11.4968  -24.8185  -43.2935 H         1 UNK         0.0903 
     63 H63        11.8010  -23.0871  -43.4472 H         1 UNK         0.0903 
     64 H64        11.0026  -23.9633  -44.7558 H         1 UNK         0.0903 
     65 H65        13.3757  -26.0055  -43.5649 H         1 UNK         0.3096 
     66 H66        15.1365  -25.6083  -45.8206 H         1 UNK         0.1121 
     67 H67        14.4786  -27.8635  -44.6661 H         1 UNK         0.0849 
     68 H68        15.6532  -27.4661  -43.4447 H         1 UNK         0.0849 
     69 H69        15.8142  -29.9956  -44.5385 H         1 UNK         0.0865 
     70 H70        16.8556  -30.3566  -45.8876 H         1 UNK         0.0865 
     71 H71        19.1461  -30.9212  -45.5074 H         1 UNK         0.1346 
     72 H72        20.9504  -30.2629  -41.6738 H         1 UNK         0.1412 
     73 H73        16.9557  -28.9179  -42.4111 H         1 UNK         0.1426 
     74 H74        19.7660  -29.1133  -39.9383 H         1 UNK         0.0716 
     75 H75        18.0196  -29.1028  -40.0079 H         1 UNK         0.0716 
     76 H76        20.9378  -25.7990  -41.3336 H         1 UNK         0.0695 
     77 H77        21.1979  -27.5210  -41.3546 H         1 UNK         0.0695 
     78 H78        19.9509  -27.6980  -43.5318 H         1 UNK         0.0983 
     79 H79        18.6178  -26.1770  -44.2947 H         1 UNK         0.3095 
     80 H80        17.9285  -22.8897  -43.7132 H         1 UNK         0.0454 
     81 H81        19.3406  -23.6305  -46.3321 H         1 UNK         0.0851 
     82 H82        19.7323  -22.2617  -45.3029 H         1 UNK         0.0851 
     83 H83        18.1828  -22.3143  -46.1244 H         1 UNK         0.0851 
     84 H84        17.2061  -24.7573  -45.8281 H         1 UNK         0.2976 
     85 H85        22.7356  -27.4265  -42.4520 H         1 UNK         0.3116 
     86 H86        24.3168  -26.2691  -44.5407 H         1 UNK         0.0646 
     87 H87        25.1670  -28.4497  -45.4486 H         1 UNK         0.0847 
     88 H88        24.0413  -29.3424  -44.4355 H         1 UNK         0.0847 
     89 H89        23.4467  -28.3339  -45.7515 H         1 UNK         0.0847 
     90 H90        26.6434  -27.0612  -44.1741 H         1 UNK         0.3040 
     91 H91        27.4511  -26.6118  -41.5189 H         1 UNK         0.1015 
     92 H92        29.7278  -27.1593  -42.4088 H         1 UNK         0.0786 
     93 H93        28.8551  -26.1020  -43.5032 H         1 UNK         0.0786 
     94 H94        29.0097  -27.8212  -43.8705 H         1 UNK         0.0786 
     95 H95        26.4729  -29.5859  -42.9489 H         1 UNK         0.3172 
     96 H96        27.7231  -31.4522  -41.1490 H         1 UNK         0.0595 
     97 H97        25.1602  -31.6715  -42.8300 H         1 UNK         0.0839 
     98 H98        25.9914  -33.0120  -42.0600 H         1 UNK         0.0839 
     99 H99        26.7814  -32.1316  -43.3563 H         1 UNK         0.0839 
    100 H100       25.1737  -29.1752  -40.6991 H         1 UNK         0.2998 
    101 H101       23.9010  -28.5503  -39.0646 H         1 UNK         0.0822 
    102 H102       24.2147  -29.2887  -36.7390 H         1 UNK         0.0787 
    103 H103       25.1548  -30.6781  -37.2530 H         1 UNK         0.0787 
    104 H104       25.7795  -29.0470  -37.5002 H         1 UNK         0.0787 
    105 H105       23.8015  -32.0205  -39.7062 H         1 UNK         0.3055 
    106 H106       20.8745  -31.8946  -39.8124 H         1 UNK         0.1106 
    107 H107       21.3029  -32.7119  -37.4798 H         1 UNK         0.0828 
    108 H108       20.6420  -34.0006  -38.4715 H         1 UNK         0.0828 
    109 H109       22.3621  -33.9758  -38.1020 H         1 UNK         0.0828 
    110 H110       20.0778  -33.3091  -41.3532 H         1 UNK         0.2931 
    111 H111       22.0431  -34.6927  -43.0971 H         1 UNK         0.0412 
    112 H112       20.1778  -35.6588  -40.4602 H         1 UNK         0.3472 
    113 H113       19.8968  -37.2958  -40.9948 H         1 UNK         0.3472 
    114 H114       19.3300  -33.4117  -43.5848 H         1 UNK         0.0970 
    115 H115       19.7831  -34.7503  -44.5838 H         1 UNK         0.0970 
    116 H116       22.1074  -31.6100  -43.2444 H         1 UNK         0.0612 
    117 H117       21.9988  -30.6837  -44.7174 H         1 UNK         0.0612 
@<TRIPOS>BOND
     1    1    2 1    
     2    1   62 1    
     3    1   63 1    
     4    1   64 1    
     5    2    3 2    
     6    2    4 am   BACKBONE|DICT|INTERRES
     7    4    5 1    
     8    4   65 1    
     9    5    6 1    
    10    5   25 1    
    11    5   66 1    
    12    6    7 1    
    13    6   67 1    
    14    6   68 1    
    15    7    8 1    
    16    8    9 1    
    17    8   69 1    
    18    8   70 1    
    19    9   10 ar   
    20    9   14 ar   
    21   10   11 ar   
    22   10   71 1    
    23   11   12 ar   
    24   11   61 1    
    25   12   13 ar   
    26   12   72 1    
    27   13   14 ar   
    28   13   15 1    
    29   14   73 1    
    30   15   16 1    
    31   15   74 1    
    32   15   75 1    
    33   16   17 1    
    34   17   18 1    
    35   17   76 1    
    36   17   77 1    
    37   18   19 1    
    38   18   27 1    
    39   18   78 1    
    40   19   20 am   BACKBONE|DICT|INTERRES
    41   19   79 1    
    42   20   21 2    
    43   20   22 1    
    44   22   23 1    
    45   22   24 1    
    46   22   80 1    
    47   23   81 1    
    48   23   82 1    
    49   23   83 1    
    50   24   25 am   BACKBONE|DICT|INTERRES
    51   24   84 1    
    52   25   26 2    
    53   27   28 2    
    54   27   29 am   BACKBONE|DICT|INTERRES
    55   29   30 1    
    56   29   85 1    
    57   30   31 1    
    58   30   32 1    
    59   30   86 1    
    60   31   87 1    
    61   31   88 1    
    62   31   89 1    
    63   32   33 2    
    64   32   34 am   BACKBONE|DICT|INTERRES
    65   34   35 1    
    66   34   90 1    
    67   35   36 1    
    68   35   37 1    
    69   35   91 1    
    70   36   92 1    
    71   36   93 1    
    72   36   94 1    
    73   37   38 2    
    74   37   39 am   BACKBONE|DICT|INTERRES
    75   39   40 1    
    76   39   95 1    
    77   40   41 1    
    78   40   42 1    
    79   40   96 1    
    80   41   97 1    
    81   41   98 1    
    82   41   99 1    
    83   42   43 2    
    84   42   44 am   BACKBONE|DICT|INTERRES
    85   44   45 1    
    86   44  100 1    
    87   45   46 1    
    88   45   47 1    
    89   45  101 1    
    90   46  102 1    
    91   46  103 1    
    92   46  104 1    
    93   47   48 2    
    94   47   49 am   BACKBONE|DICT|INTERRES
    95   49   50 1    
    96   49  105 1    
    97   50   51 1    
    98   50   52 1    
    99   50  106 1    
   100   51  107 1    
   101   51  108 1    
   102   51  109 1    
   103   52   53 2    
   104   52   54 am   BACKBONE|DICT|INTERRES
   105   54   55 1    
   106   54  110 1    
   107   55   56 1    
   108   55   59 1    
   109   55  111 1    
   110   56   57 am   BACKBONE|DICT|INTERRES
   111   56   58 2    
   112   57  112 1    
   113   57  113 1    
   114   59   60 1    
   115   59  114 1    
   116   59  115 1    
   117   60   61 1    
   118   61  116 1    
   119   61  117 1    
@<TRIPOS>SUBSTRUCTURE
     1 UNK         1 GROUP             0       ****    0 ROOT    
