@<TRIPOS>MOLECULE
3R8
117   119    1
SMALL
USER_CHARGES


@<TRIPOS>ATOM
      1 CA         16.5588  -28.0056  -38.6645 C.3       0 UNK        -0.2013 
      2 C          15.9846  -27.9629  -40.0731 C.2       0 UNK         0.4866 
      3 O          14.8006  -27.6675  -40.2411 O.2       0 UNK        -0.5176 
      4 N          16.8104  -28.2636  -41.0812 N.am      1 UNK        -0.4884 
      5 CA         16.4512  -28.2290  -42.5038 C.3       1 UNK         0.0853 
      6 C6         17.2402  -29.3116  -43.2851 C.3       10 UNK        -0.0849 
      7 S7         16.2900  -30.1168  -44.6237 S.3       10 UNK        -0.2776 
      8 C8         17.2032  -29.7395  -46.1659 C.3       10 UNK         0.0316 
      9 C9         18.7242  -29.8051  -46.0511 C.ar      10 UNK        -0.0863 
     10 C10        19.3626  -30.8827  -45.4302 C.ar      10 UNK        -0.1009 
     11 C11        20.7541  -30.9011  -45.2904 C.ar      10 UNK        -0.0712 
     12 C12        21.5109  -29.8464  -45.8106 C.ar      10 UNK        -0.0894 
     13 C13        20.8939  -28.7769  -46.4686 C.ar      10 UNK        -0.0745 
     14 C14        19.4970  -28.7708  -46.5847 C.ar      10 UNK        -0.0972 
     15 C15        21.7716  -27.6737  -47.0667 C.3       10 UNK         0.0209 
     16 S16        20.9064  -26.1060  -47.4349 S.3       10 UNK        -0.2568 
     17 C17        21.2615  -25.0753  -45.9689 C.3       10 UNK        -0.0983 
     18 CA         20.4557  -25.3815  -44.6707 C.3       3 UNK         0.0876 
     19 N          19.0524  -25.7082  -44.8894 N.am      3 UNK        -0.4424 
     20 C          18.0627  -24.8542  -45.1550 C.2       2 UNK         0.4918 
     21 O          18.2311  -23.6521  -45.3629 O.2       2 UNK        -0.4875 
     22 CA         16.6318  -25.4325  -45.1738 C.3       2 UNK         0.0481 
     23 CB         16.1738  -25.6628  -46.6229 C.3       2 UNK        -0.1831 
     24 N          16.4665  -26.6786  -44.4097 N.am      2 UNK        -0.4498 
     25 C          16.6441  -26.8092  -43.0863 C.2       1 UNK         0.5027 
     26 O          16.9511  -25.8655  -42.3521 O.2       1 UNK        -0.4969 
     27 C          21.0582  -26.4902  -43.7889 C.2       3 UNK         0.5005 
     28 O          20.3524  -27.4381  -43.4350 O.2       3 UNK        -0.5279 
     29 N          22.3348  -26.3364  -43.4241 N.am      4 UNK        -0.4463 
     30 CA         23.0963  -27.2925  -42.6242 C.3       4 UNK         0.0283 
     31 CB         23.7420  -26.5399  -41.4472 C.3       4 UNK        -0.1875 
     32 C          24.1801  -27.9506  -43.4875 C.2       4 UNK         0.4949 
     33 O          24.6021  -27.3782  -44.4957 O.2       4 UNK        -0.5039 
     34 N          24.6384  -29.1197  -43.0383 N.am      5 UNK        -0.4663 
     35 CA         25.7943  -29.8422  -43.5623 C.3       5 UNK         0.0242 
     36 CB         25.3183  -31.1485  -44.2317 C.3       5 UNK        -0.1982 
     37 C          26.7666  -30.0408  -42.3888 C.2       5 UNK         0.5017 
     38 O          27.2279  -29.0483  -41.8226 O.2       5 UNK        -0.5012 
     39 N          27.0337  -31.2984  -42.0071 N.am      6 UNK        -0.4439 
     40 CA         27.7821  -31.6622  -40.7954 C.3       6 UNK         0.0297 
     41 CB         28.1848  -33.1437  -40.8773 C.3       6 UNK        -0.2006 
     42 C          26.9977  -31.3881  -39.4944 C.2       6 UNK         0.4892 
     43 O          27.6047  -31.2875  -38.4277 O.2       6 UNK        -0.5089 
     44 N          25.6725  -31.2662  -39.6142 N.am      7 UNK        -0.4243 
     45 CA         24.7215  -30.8624  -38.5871 C.3       7 UNK         0.0196 
     46 CB         24.1476  -32.1174  -37.9031 C.3       7 UNK        -0.2007 
     47 C          23.6266  -30.0333  -39.2754 C.2       7 UNK         0.5020 
     48 O          23.6625  -29.8685  -40.4973 O.2       7 UNK        -0.5147 
     49 N          22.6534  -29.5459  -38.4952 N.am      8 UNK        -0.4734 
     50 CA         21.5064  -28.7594  -38.9769 C.3       8 UNK         0.0238 
     51 CB         20.8132  -28.0989  -37.7730 C.3       8 UNK        -0.1912 
     52 C          20.4855  -29.5505  -39.8220 C.2       8 UNK         0.5038 
     53 O          19.5715  -28.9392  -40.3778 O.2       8 UNK        -0.5046 
     54 N          20.6404  -30.8806  -39.8833 N.am      9 UNK        -0.4200 
     55 CA         19.8428  -31.8201  -40.6887 C.3       9 UNK         0.0839 
     56 C          18.3512  -31.9549  -40.2505 C.2       9 UNK         0.5513 
     57 N          17.9694  -31.5159  -39.0570 N.am      9 UNK        -0.7519 
     58 O          17.5318  -32.5003  -40.9848 O.2       9 UNK        -0.4960 
     59 C59        20.0015  -31.5753  -42.2164 C.3       10 UNK        -0.0876 
     60 S60        21.7178  -31.7267  -42.8141 S.3       10 UNK        -0.2414 
     61 C61        21.4392  -32.0637  -44.5831 C.3       10 UNK         0.0169 
     62 H62        17.5816  -28.3800  -38.6529 H         1 UNK         0.0903 
     63 H63        16.5569  -27.0072  -38.2280 H         1 UNK         0.0903 
     64 H64        15.9558  -28.6568  -38.0324 H         1 UNK         0.0903 
     65 H65        17.7902  -28.4581  -40.8801 H         1 UNK         0.3096 
     66 H66        15.3857  -28.4561  -42.5851 H         1 UNK         0.1121 
     67 H67        17.4815  -30.1295  -42.6070 H         1 UNK         0.0849 
     68 H68        18.2021  -28.9342  -43.6322 H         1 UNK         0.0849 
     69 H69        16.8853  -30.4443  -46.9353 H         1 UNK         0.0865 
     70 H70        16.8892  -28.7568  -46.5172 H         1 UNK         0.0865 
     71 H71        18.7706  -31.6952  -45.0326 H         1 UNK         0.1346 
     72 H72        22.5868  -29.8607  -45.7054 H         1 UNK         0.1412 
     73 H73        18.9986  -27.9591  -47.0940 H         1 UNK         0.1426 
     74 H74        22.1928  -28.0514  -47.9990 H         1 UNK         0.0716 
     75 H75        22.6184  -27.4711  -46.4099 H         1 UNK         0.0716 
     76 H76        21.0324  -24.0516  -46.2683 H         1 UNK         0.0695 
     77 H77        22.3379  -25.0741  -45.7913 H         1 UNK         0.0695 
     78 H78        20.4807  -24.4846  -44.0474 H         1 UNK         0.0983 
     79 H79        18.8369  -26.6707  -44.6612 H         1 UNK         0.3095 
     80 H80        15.9741  -24.6857  -44.7247 H         1 UNK         0.0454 
     81 H81        16.8082  -26.3837  -47.1392 H         1 UNK         0.0851 
     82 H82        16.2131  -24.7339  -47.1937 H         1 UNK         0.0851 
     83 H83        15.1456  -26.0223  -46.6663 H         1 UNK         0.0851 
     84 H84        16.1992  -27.5005  -44.9324 H         1 UNK         0.2976 
     85 H85        22.8698  -25.5709  -43.8098 H         1 UNK         0.3116 
     86 H86        22.4444  -28.0756  -42.2293 H         1 UNK         0.0646 
     87 H87        22.9893  -26.0587  -40.8230 H         1 UNK         0.0847 
     88 H88        24.4340  -25.7698  -41.7903 H         1 UNK         0.0847 
     89 H89        24.3069  -27.2197  -40.8080 H         1 UNK         0.0847 
     90 H90        24.2544  -29.4691  -42.1593 H         1 UNK         0.3040 
     91 H91        26.3208  -29.2415  -44.3074 H         1 UNK         0.1015 
     92 H92        24.7593  -31.7847  -43.5443 H         1 UNK         0.0786 
     93 H93        26.1577  -31.7243  -44.6238 H         1 UNK         0.0786 
     94 H94        24.6654  -30.9321  -45.0767 H         1 UNK         0.0786 
     95 H95        26.6257  -32.0564  -42.5359 H         1 UNK         0.3172 
     96 H96        28.6936  -31.0616  -40.7620 H         1 UNK         0.0595 
     97 H97        27.3137  -33.7989  -40.9175 H         1 UNK         0.0839 
     98 H98        28.7713  -33.4365  -40.0051 H         1 UNK         0.0839 
     99 H99        28.7972  -33.3418  -41.7572 H         1 UNK         0.0839 
    100 H100       25.2723  -31.2888  -40.5430 H         1 UNK         0.2998 
    101 H101       25.2184  -30.2272  -37.8507 H         1 UNK         0.0822 
    102 H102       24.9409  -32.7220  -37.4626 H         1 UNK         0.0787 
    103 H103       23.4618  -31.8559  -37.0968 H         1 UNK         0.0787 
    104 H104       23.6037  -32.7474  -38.6082 H         1 UNK         0.0787 
    105 H105       22.6917  -29.7248  -37.5014 H         1 UNK         0.3055 
    106 H106       21.8896  -27.9684  -39.6240 H         1 UNK         0.1106 
    107 H107       20.4016  -28.8396  -37.0865 H         1 UNK         0.0828 
    108 H108       19.9892  -27.4611  -38.0965 H         1 UNK         0.0828 
    109 H109       21.5039  -27.4675  -37.2139 H         1 UNK         0.0828 
    110 H110       21.4134  -31.2849  -39.3781 H         1 UNK         0.2931 
    111 H111       20.2696  -32.8018  -40.4809 H         1 UNK         0.0412 
    112 H112       17.0082  -31.6273  -38.7761 H         1 UNK         0.3472 
    113 H113       18.6345  -31.0898  -38.4329 H         1 UNK         0.3472 
    114 H114       19.6581  -30.5769  -42.4827 H         1 UNK         0.0970 
    115 H115       19.3854  -32.2790  -42.7778 H         1 UNK         0.0970 
    116 H116       20.8496  -32.9754  -44.6898 H         1 UNK         0.0612 
    117 H117       22.4007  -32.2675  -45.0563 H         1 UNK         0.0612 
@<TRIPOS>BOND
     1    1    2 1    
     2    1   62 1    
     3    1   63 1    
     4    1   64 1    
     5    2    3 2    
     6    2    4 am   BACKBONE|DICT|INTERRES
     7    4    5 1    
     8    4   65 1    
     9    5    6 1    
    10    5   25 1    
    11    5   66 1    
    12    6    7 1    
    13    6   67 1    
    14    6   68 1    
    15    7    8 1    
    16    8    9 1    
    17    8   69 1    
    18    8   70 1    
    19    9   10 ar   
    20    9   14 ar   
    21   10   11 ar   
    22   10   71 1    
    23   11   12 ar   
    24   11   61 1    
    25   12   13 ar   
    26   12   72 1    
    27   13   14 ar   
    28   13   15 1    
    29   14   73 1    
    30   15   16 1    
    31   15   74 1    
    32   15   75 1    
    33   16   17 1    
    34   17   18 1    
    35   17   76 1    
    36   17   77 1    
    37   18   19 1    
    38   18   27 1    
    39   18   78 1    
    40   19   20 am   BACKBONE|DICT|INTERRES
    41   19   79 1    
    42   20   21 2    
    43   20   22 1    
    44   22   23 1    
    45   22   24 1    
    46   22   80 1    
    47   23   81 1    
    48   23   82 1    
    49   23   83 1    
    50   24   25 am   BACKBONE|DICT|INTERRES
    51   24   84 1    
    52   25   26 2    
    53   27   28 2    
    54   27   29 am   BACKBONE|DICT|INTERRES
    55   29   30 1    
    56   29   85 1    
    57   30   31 1    
    58   30   32 1    
    59   30   86 1    
    60   31   87 1    
    61   31   88 1    
    62   31   89 1    
    63   32   33 2    
    64   32   34 am   BACKBONE|DICT|INTERRES
    65   34   35 1    
    66   34   90 1    
    67   35   36 1    
    68   35   37 1    
    69   35   91 1    
    70   36   92 1    
    71   36   93 1    
    72   36   94 1    
    73   37   38 2    
    74   37   39 am   BACKBONE|DICT|INTERRES
    75   39   40 1    
    76   39   95 1    
    77   40   41 1    
    78   40   42 1    
    79   40   96 1    
    80   41   97 1    
    81   41   98 1    
    82   41   99 1    
    83   42   43 2    
    84   42   44 am   BACKBONE|DICT|INTERRES
    85   44   45 1    
    86   44  100 1    
    87   45   46 1    
    88   45   47 1    
    89   45  101 1    
    90   46  102 1    
    91   46  103 1    
    92   46  104 1    
    93   47   48 2    
    94   47   49 am   BACKBONE|DICT|INTERRES
    95   49   50 1    
    96   49  105 1    
    97   50   51 1    
    98   50   52 1    
    99   50  106 1    
   100   51  107 1    
   101   51  108 1    
   102   51  109 1    
   103   52   53 2    
   104   52   54 am   BACKBONE|DICT|INTERRES
   105   54   55 1    
   106   54  110 1    
   107   55   56 1    
   108   55   59 1    
   109   55  111 1    
   110   56   57 am   BACKBONE|DICT|INTERRES
   111   56   58 2    
   112   57  112 1    
   113   57  113 1    
   114   59   60 1    
   115   59  114 1    
   116   59  115 1    
   117   60   61 1    
   118   61  116 1    
   119   61  117 1    
@<TRIPOS>SUBSTRUCTURE
     1 UNK         1 GROUP             0       ****    0 ROOT    
