@<TRIPOS>MOLECULE
3R8
117   119    1
SMALL
USER_CHARGES


@<TRIPOS>ATOM
      1 CA         14.8962  -22.0598  -42.8563 C.3       0 UNK        -0.2013 
      2 C          15.5403  -22.7063  -44.0735 C.2       0 UNK         0.4866 
      3 O          15.9481  -22.0024  -44.9982 O.2       0 UNK        -0.5176 
      4 N          15.6265  -24.0416  -44.0854 N.am      1 UNK        -0.4884 
      5 CA         16.2860  -24.8381  -45.1240 C.3       1 UNK         0.0853 
      6 C6         15.8718  -26.3353  -45.0734 C.3       10 UNK        -0.0849 
      7 S7         15.7795  -27.0548  -43.3930 S.3       10 UNK        -0.2776 
      8 C8         15.0478  -28.6883  -43.7376 C.3       10 UNK         0.0316 
      9 C9         16.1266  -29.7023  -44.0812 C.ar      10 UNK        -0.0863 
     10 C10        16.7451  -30.4332  -43.0622 C.ar      10 UNK        -0.1009 
     11 C11        17.7900  -31.3142  -43.3538 C.ar      10 UNK        -0.0712 
     12 C12        18.2047  -31.4740  -44.6788 C.ar      10 UNK        -0.0894 
     13 C13        17.6137  -30.7223  -45.7015 C.ar      10 UNK        -0.0745 
     14 C14        16.5506  -29.8655  -45.4031 C.ar      10 UNK        -0.0972 
     15 C15        18.2354  -30.7101  -47.0925 C.3       10 UNK         0.0209 
     16 S16        19.2484  -29.2045  -47.3693 S.3       10 UNK        -0.2568 
     17 C17        20.1185  -29.0489  -45.7686 C.3       10 UNK        -0.0983 
     18 CA         20.9827  -27.7836  -45.5562 C.3       3 UNK         0.0876 
     19 N          20.2690  -26.5674  -45.9513 N.am      3 UNK        -0.4424 
     20 C          20.8013  -25.3423  -46.0317 C.2       2 UNK         0.4918 
     21 O          21.9828  -25.0931  -45.7925 O.2       2 UNK        -0.4875 
     22 CA         19.8592  -24.1967  -46.4464 C.3       2 UNK         0.0481 
     23 CB         20.1111  -23.8059  -47.9117 C.3       2 UNK        -0.1831 
     24 N          18.4295  -24.4829  -46.2657 N.am      2 UNK        -0.4498 
     25 C          17.8179  -24.6485  -45.0830 C.2       1 UNK         0.5027 
     26 O          18.4147  -24.6660  -44.0039 O.2       1 UNK        -0.4969 
     27 C          21.4123  -27.7883  -44.0715 C.2       3 UNK         0.5005 
     28 O          22.2907  -28.5749  -43.7198 O.2       3 UNK        -0.5279 
     29 N          20.7204  -27.0028  -43.2282 N.am      4 UNK        -0.4463 
     30 CA         20.6305  -27.1227  -41.7665 C.3       4 UNK         0.0283 
     31 CB         19.4330  -26.2850  -41.2801 C.3       4 UNK        -0.1875 
     32 C          21.9169  -26.8383  -40.9598 C.2       4 UNK         0.4949 
     33 O          21.8706  -26.1207  -39.9587 O.2       4 UNK        -0.5039 
     34 N          23.0341  -27.4402  -41.3709 N.am      5 UNK        -0.4663 
     35 CA         24.2492  -27.5895  -40.5779 C.3       5 UNK         0.0242 
     36 CB         25.4600  -27.6484  -41.5232 C.3       5 UNK        -0.1982 
     37 C          24.1477  -28.8865  -39.7635 C.2       5 UNK         0.5017 
     38 O          23.6531  -29.8928  -40.2807 O.2       5 UNK        -0.5012 
     39 N          24.6666  -28.8679  -38.5287 N.am      6 UNK        -0.4439 
     40 CA         24.6870  -30.0232  -37.6216 C.3       6 UNK         0.0297 
     41 CB         25.2128  -29.5883  -36.2444 C.3       6 UNK        -0.2006 
     42 C          25.5020  -31.2137  -38.1589 C.2       6 UNK         0.4892 
     43 O          25.1420  -32.3608  -37.8982 O.2       6 UNK        -0.5089 
     44 N          26.5576  -30.9211  -38.9306 N.am      7 UNK        -0.4243 
     45 CA         27.3816  -31.9132  -39.6235 C.3       7 UNK         0.0196 
     46 CB         28.6833  -31.2417  -40.0916 C.3       7 UNK        -0.2007 
     47 C          26.6674  -32.5834  -40.8128 C.2       7 UNK         0.5020 
     48 O          27.0689  -33.6796  -41.2041 O.2       7 UNK        -0.5147 
     49 N          25.6461  -31.9226  -41.3761 N.am      8 UNK        -0.4734 
     50 CA         24.8624  -32.4253  -42.5036 C.3       8 UNK         0.0238 
     51 CB         24.4562  -31.2562  -43.4162 C.3       8 UNK        -0.1912 
     52 C          23.6310  -33.1990  -42.0170 C.2       8 UNK         0.5038 
     53 O          23.4414  -34.3442  -42.4294 O.2       8 UNK        -0.5046 
     54 N          22.8197  -32.5655  -41.1593 N.am      9 UNK        -0.4200 
     55 CA         21.5775  -33.1480  -40.6253 C.3       9 UNK         0.0839 
     56 C          21.7845  -34.1434  -39.4494 C.2       9 UNK         0.5513 
     57 N          22.9351  -34.1813  -38.7901 N.am      9 UNK        -0.7519 
     58 O          20.8781  -34.9105  -39.1352 O.2       9 UNK        -0.4960 
     59 C59        20.5340  -32.0615  -40.2610 C.3       10 UNK        -0.0876 
     60 S60        19.9915  -31.0992  -41.7127 S.3       10 UNK        -0.2414 
     61 C61        18.5169  -32.0360  -42.2296 C.3       10 UNK         0.0169 
     62 H62        14.5728  -22.8002  -42.1248 H         1 UNK         0.0903 
     63 H63        15.6039  -21.3892  -42.3696 H         1 UNK         0.0903 
     64 H64        14.0256  -21.4774  -43.1568 H         1 UNK         0.0903 
     65 H65        15.3086  -24.5751  -43.2875 H         1 UNK         0.3096 
     66 H66        15.9416  -24.4452  -46.0837 H         1 UNK         0.1121 
     67 H67        14.8827  -26.4352  -45.5232 H         1 UNK         0.0849 
     68 H68        16.5346  -26.9453  -45.6896 H         1 UNK         0.0849 
     69 H69        14.4970  -29.0200  -42.8560 H         1 UNK         0.0865 
     70 H70        14.3140  -28.6166  -44.5419 H         1 UNK         0.0865 
     71 H71        16.4398  -30.2859  -42.0350 H         1 UNK         0.1346 
     72 H72        19.0465  -32.1165  -44.8987 H         1 UNK         0.1412 
     73 H73        16.1071  -29.2708  -46.1898 H         1 UNK         0.1426 
     74 H74        17.4523  -30.7623  -47.8502 H         1 UNK         0.0716 
     75 H75        18.8633  -31.5907  -47.2369 H         1 UNK         0.0716 
     76 H76        19.3576  -29.0544  -44.9875 H         1 UNK         0.0695 
     77 H77        20.7181  -29.9500  -45.6216 H         1 UNK         0.0695 
     78 H78        21.8839  -27.8621  -46.1679 H         1 UNK         0.0983 
     79 H79        19.2991  -26.6880  -46.2012 H         1 UNK         0.3095 
     80 H80        20.1047  -23.3366  -45.8199 H         1 UNK         0.0454 
     81 H81        21.1597  -23.5523  -48.0742 H         1 UNK         0.0851 
     82 H82        19.8641  -24.6191  -48.5954 H         1 UNK         0.0851 
     83 H83        19.5233  -22.9337  -48.1982 H         1 UNK         0.0851 
     84 H84        17.8695  -24.4879  -47.1067 H         1 UNK         0.2976 
     85 H85        20.0542  -26.3636  -43.6429 H         1 UNK         0.3116 
     86 H86        20.3872  -28.1655  -41.5583 H         1 UNK         0.0646 
     87 H87        19.2629  -26.4192  -40.2111 H         1 UNK         0.0847 
     88 H88        18.5122  -26.5753  -41.7868 H         1 UNK         0.0847 
     89 H89        19.5906  -25.2204  -41.4567 H         1 UNK         0.0847 
     90 H90        22.9523  -28.0320  -42.1984 H         1 UNK         0.3040 
     91 H91        24.3635  -26.7377  -39.9037 H         1 UNK         0.1015 
     92 H92        25.5396  -26.7384  -42.1182 H         1 UNK         0.0786 
     93 H93        25.3953  -28.4913  -42.2128 H         1 UNK         0.0786 
     94 H94        26.3909  -27.7524  -40.9645 H         1 UNK         0.0786 
     95 H95        25.0626  -28.0073  -38.1769 H         1 UNK         0.3172 
     96 H96        23.6564  -30.3641  -37.5001 H         1 UNK         0.0595 
     97 H97        24.5875  -28.8095  -35.8073 H         1 UNK         0.0839 
     98 H98        26.2340  -29.2093  -36.3007 H         1 UNK         0.0839 
     99 H99        25.2154  -30.4269  -35.5464 H         1 UNK         0.0839 
    100 H100       26.7848  -29.9496  -39.0837 H         1 UNK         0.2998 
    101 H101       27.6387  -32.7006  -38.9113 H         1 UNK         0.0822 
    102 H102       29.2402  -30.8252  -39.2519 H         1 UNK         0.0787 
    103 H103       29.3375  -31.9612  -40.5863 H         1 UNK         0.0787 
    104 H104       28.4900  -30.4360  -40.8013 H         1 UNK         0.0787 
    105 H105       25.3268  -31.0598  -40.9539 H         1 UNK         0.3055 
    106 H106       25.4707  -33.1109  -43.0985 H         1 UNK         0.1106 
    107 H107       23.8538  -30.5181  -42.8873 H         1 UNK         0.0828 
    108 H108       25.3302  -30.7455  -43.8201 H         1 UNK         0.0828 
    109 H109       23.8652  -31.6075  -44.2630 H         1 UNK         0.0828 
    110 H110       23.0442  -31.6193  -40.8642 H         1 UNK         0.2931 
    111 H111       21.1315  -33.7451  -41.4236 H         1 UNK         0.0412 
    112 H112       23.0427  -34.8402  -38.0356 H         1 UNK         0.3472 
    113 H113       23.6771  -33.5204  -38.9779 H         1 UNK         0.3472 
    114 H114       20.9527  -31.3698  -39.5276 H         1 UNK         0.0970 
    115 H115       19.6546  -32.5033  -39.7882 H         1 UNK         0.0970 
    116 H116       17.8491  -32.1694  -41.3772 H         1 UNK         0.0612 
    117 H117       18.8154  -33.0342  -42.5536 H         1 UNK         0.0612 
@<TRIPOS>BOND
     1    1    2 1    
     2    1   62 1    
     3    1   63 1    
     4    1   64 1    
     5    2    3 2    
     6    2    4 am   BACKBONE|DICT|INTERRES
     7    4    5 1    
     8    4   65 1    
     9    5    6 1    
    10    5   25 1    
    11    5   66 1    
    12    6    7 1    
    13    6   67 1    
    14    6   68 1    
    15    7    8 1    
    16    8    9 1    
    17    8   69 1    
    18    8   70 1    
    19    9   10 ar   
    20    9   14 ar   
    21   10   11 ar   
    22   10   71 1    
    23   11   12 ar   
    24   11   61 1    
    25   12   13 ar   
    26   12   72 1    
    27   13   14 ar   
    28   13   15 1    
    29   14   73 1    
    30   15   16 1    
    31   15   74 1    
    32   15   75 1    
    33   16   17 1    
    34   17   18 1    
    35   17   76 1    
    36   17   77 1    
    37   18   19 1    
    38   18   27 1    
    39   18   78 1    
    40   19   20 am   BACKBONE|DICT|INTERRES
    41   19   79 1    
    42   20   21 2    
    43   20   22 1    
    44   22   23 1    
    45   22   24 1    
    46   22   80 1    
    47   23   81 1    
    48   23   82 1    
    49   23   83 1    
    50   24   25 am   BACKBONE|DICT|INTERRES
    51   24   84 1    
    52   25   26 2    
    53   27   28 2    
    54   27   29 am   BACKBONE|DICT|INTERRES
    55   29   30 1    
    56   29   85 1    
    57   30   31 1    
    58   30   32 1    
    59   30   86 1    
    60   31   87 1    
    61   31   88 1    
    62   31   89 1    
    63   32   33 2    
    64   32   34 am   BACKBONE|DICT|INTERRES
    65   34   35 1    
    66   34   90 1    
    67   35   36 1    
    68   35   37 1    
    69   35   91 1    
    70   36   92 1    
    71   36   93 1    
    72   36   94 1    
    73   37   38 2    
    74   37   39 am   BACKBONE|DICT|INTERRES
    75   39   40 1    
    76   39   95 1    
    77   40   41 1    
    78   40   42 1    
    79   40   96 1    
    80   41   97 1    
    81   41   98 1    
    82   41   99 1    
    83   42   43 2    
    84   42   44 am   BACKBONE|DICT|INTERRES
    85   44   45 1    
    86   44  100 1    
    87   45   46 1    
    88   45   47 1    
    89   45  101 1    
    90   46  102 1    
    91   46  103 1    
    92   46  104 1    
    93   47   48 2    
    94   47   49 am   BACKBONE|DICT|INTERRES
    95   49   50 1    
    96   49  105 1    
    97   50   51 1    
    98   50   52 1    
    99   50  106 1    
   100   51  107 1    
   101   51  108 1    
   102   51  109 1    
   103   52   53 2    
   104   52   54 am   BACKBONE|DICT|INTERRES
   105   54   55 1    
   106   54  110 1    
   107   55   56 1    
   108   55   59 1    
   109   55  111 1    
   110   56   57 am   BACKBONE|DICT|INTERRES
   111   56   58 2    
   112   57  112 1    
   113   57  113 1    
   114   59   60 1    
   115   59  114 1    
   116   59  115 1    
   117   60   61 1    
   118   61  116 1    
   119   61  117 1    
@<TRIPOS>SUBSTRUCTURE
     1 UNK         1 GROUP             0       ****    0 ROOT    
