@<TRIPOS>MOLECULE
3R8
117   119    1
SMALL
USER_CHARGES


@<TRIPOS>ATOM
      1 CA         16.1721  -22.7108  -46.9614 C.3       0 UNK        -0.2013 
      2 C          16.9637  -23.8787  -46.3935 C.2       0 UNK         0.4866 
      3 O          18.1097  -24.0954  -46.7901 O.2       0 UNK        -0.5176 
      4 N          16.3714  -24.6303  -45.4568 N.am      1 UNK        -0.4884 
      5 CA         16.9567  -25.8107  -44.8053 C.3       1 UNK         0.0853 
      6 C6         15.8615  -26.7747  -44.2792 C.3       10 UNK        -0.0849 
      7 S7         14.8626  -27.4548  -45.6488 S.3       10 UNK        -0.2776 
      8 C8         14.7240  -29.2209  -45.1964 C.3       10 UNK         0.0316 
      9 C9         16.0396  -30.0011  -45.1360 C.ar      10 UNK        -0.0863 
     10 C10        16.1055  -31.1345  -44.3178 C.ar      10 UNK        -0.1009 
     11 C11        17.2769  -31.8920  -44.2356 C.ar      10 UNK        -0.0712 
     12 C12        18.3992  -31.5049  -44.9713 C.ar      10 UNK        -0.0894 
     13 C13        18.3498  -30.3824  -45.8017 C.ar      10 UNK        -0.0745 
     14 C14        17.1659  -29.6421  -45.8902 C.ar      10 UNK        -0.0972 
     15 C15        19.5716  -29.9859  -46.6190 C.3       10 UNK         0.0209 
     16 S16        20.3553  -28.4639  -46.0016 S.3       10 UNK        -0.2568 
     17 C17        20.9214  -28.9709  -44.3392 C.3       10 UNK        -0.0983 
     18 CA         21.6721  -27.8328  -43.6025 C.3       3 UNK         0.0876 
     19 N          20.8906  -26.5918  -43.6162 N.am      3 UNK        -0.4424 
     20 C          21.1734  -25.4079  -43.0566 C.2       2 UNK         0.4918 
     21 O          22.1689  -25.2003  -42.3622 O.2       2 UNK        -0.4875 
     22 CA         20.1686  -24.2641  -43.3078 C.3       2 UNK         0.0481 
     23 CB         20.8634  -23.0727  -43.9866 C.3       2 UNK        -0.1831 
     24 N          19.0157  -24.6675  -44.1238 N.am      2 UNK        -0.4498 
     25 C          17.9753  -25.4070  -43.7147 C.2       1 UNK         0.5027 
     26 O          17.8282  -25.7797  -42.5497 O.2       1 UNK        -0.4969 
     27 C          22.1024  -28.2922  -42.1937 C.2       3 UNK         0.5005 
     28 O          23.1504  -28.9284  -42.0648 O.2       3 UNK        -0.5279 
     29 N          21.3267  -27.9193  -41.1635 N.am      4 UNK        -0.4463 
     30 CA         21.6252  -28.0948  -39.7379 C.3       4 UNK         0.0283 
     31 CB         20.4681  -27.5200  -38.9062 C.3       4 UNK        -0.1875 
     32 C          22.9625  -27.4785  -39.2892 C.2       4 UNK         0.4949 
     33 O          23.6091  -28.0341  -38.4018 O.2       4 UNK        -0.5039 
     34 N          23.3617  -26.3612  -39.9125 N.am      5 UNK        -0.4663 
     35 CA         24.6460  -25.7029  -39.6635 C.3       5 UNK         0.0242 
     36 CB         24.5097  -24.2050  -39.9827 C.3       5 UNK        -0.1982 
     37 C          25.7960  -26.3203  -40.4785 C.2       5 UNK         0.5017 
     38 O          26.9549  -26.1434  -40.1015 O.2       5 UNK        -0.5012 
     39 N          25.4678  -27.0045  -41.5832 N.am      6 UNK        -0.4439 
     40 CA         26.4309  -27.6039  -42.5056 C.3       6 UNK         0.0297 
     41 CB         25.8437  -27.6274  -43.9273 C.3       6 UNK        -0.2006 
     42 C          26.8497  -29.0140  -42.0664 C.2       6 UNK         0.4892 
     43 O          28.0478  -29.2981  -42.0311 O.2       6 UNK        -0.5089 
     44 N          25.8670  -29.8707  -41.7567 N.am      7 UNK        -0.4243 
     45 CA         26.0841  -31.2824  -41.4157 C.3       7 UNK         0.0196 
     46 CB         26.3817  -32.0957  -42.6917 C.3       7 UNK        -0.2007 
     47 C          24.9183  -31.9211  -40.6441 C.2       7 UNK         0.5020 
     48 O          25.1556  -32.8973  -39.9316 O.2       7 UNK        -0.5147 
     49 N          23.7010  -31.3780  -40.7951 N.am      8 UNK        -0.4734 
     50 CA         22.4205  -31.8561  -40.2576 C.3       8 UNK         0.0238 
     51 CB         22.4503  -31.9546  -38.7165 C.3       8 UNK        -0.1912 
     52 C          21.9033  -33.1461  -40.9187 C.2       8 UNK         0.5038 
     53 O          22.6158  -33.8084  -41.6769 O.2       8 UNK        -0.5046 
     54 N          20.6251  -33.4330  -40.6535 N.am      9 UNK        -0.4200 
     55 CA         19.8607  -34.5449  -41.2306 C.3       9 UNK         0.0839 
     56 C          20.3102  -35.9255  -40.6834 C.2       9 UNK         0.5513 
     57 N          20.2474  -36.9665  -41.5022 N.am      9 UNK        -0.7519 
     58 O          20.6696  -36.0687  -39.5163 O.2       9 UNK        -0.4960 
     59 C59        18.3351  -34.3373  -41.0334 C.3       10 UNK        -0.0876 
     60 S60        17.7677  -32.7150  -41.6536 S.3       10 UNK        -0.2414 
     61 C61        17.3304  -33.1366  -43.3645 C.3       10 UNK         0.0169 
     62 H62        16.0585  -22.8245  -48.0392 H         1 UNK         0.0903 
     63 H63        15.1776  -22.6395  -46.5214 H         1 UNK         0.0903 
     64 H64        16.6960  -21.7746  -46.7707 H         1 UNK         0.0903 
     65 H65        15.4336  -24.3977  -45.1611 H         1 UNK         0.3096 
     66 H66        17.5309  -26.3615  -45.5547 H         1 UNK         0.1121 
     67 H67        15.2002  -26.2670  -43.5746 H         1 UNK         0.0849 
     68 H68        16.3137  -27.6020  -43.7287 H         1 UNK         0.0849 
     69 H69        14.2126  -29.2821  -44.2342 H         1 UNK         0.0865 
     70 H70        14.0710  -29.7098  -45.9204 H         1 UNK         0.0865 
     71 H71        15.2400  -31.4344  -43.7423 H         1 UNK         0.1346 
     72 H72        19.3097  -32.0847  -44.9027 H         1 UNK         0.1412 
     73 H73        17.1321  -28.7839  -46.5466 H         1 UNK         0.1426 
     74 H74        20.3109  -30.7883  -46.6319 H         1 UNK         0.0716 
     75 H75        19.2727  -29.8309  -47.6567 H         1 UNK         0.0716 
     76 H76        20.0502  -29.2887  -43.7625 H         1 UNK         0.0695 
     77 H77        21.5628  -29.8483  -44.4444 H         1 UNK         0.0695 
     78 H78        22.5898  -27.6207  -44.1540 H         1 UNK         0.0983 
     79 H79        20.0623  -26.6339  -44.1900 H         1 UNK         0.3095 
     80 H80        19.8034  -23.9357  -42.3328 H         1 UNK         0.0454 
     81 H81        21.2572  -23.3408  -44.9677 H         1 UNK         0.0851 
     82 H82        20.1778  -22.2354  -44.1175 H         1 UNK         0.0851 
     83 H83        21.7002  -22.7117  -43.3869 H         1 UNK         0.0851 
     84 H84        19.0228  -24.3883  -45.1021 H         1 UNK         0.2976 
     85 H85        20.4888  -27.3989  -41.3818 H         1 UNK         0.3116 
     86 H86        21.6812  -29.1607  -39.5313 H         1 UNK         0.0646 
     87 H87        20.3343  -26.4519  -39.0831 H         1 UNK         0.0847 
     88 H88        19.5266  -28.0197  -39.1349 H         1 UNK         0.0847 
     89 H89        20.6510  -27.6526  -37.8388 H         1 UNK         0.0847 
     90 H90        22.7843  -25.9667  -40.6503 H         1 UNK         0.3040 
     91 H91        24.9032  -25.8019  -38.6062 H         1 UNK         0.1015 
     92 H92        24.2757  -24.0350  -41.0345 H         1 UNK         0.0786 
     93 H93        25.4373  -23.6736  -39.7655 H         1 UNK         0.0786 
     94 H94        23.7241  -23.7418  -39.3854 H         1 UNK         0.0786 
     95 H95        24.4878  -27.1558  -41.7780 H         1 UNK         0.3172 
     96 H96        27.3276  -26.9806  -42.5333 H         1 UNK         0.0595 
     97 H97        26.5772  -28.0040  -44.6415 H         1 UNK         0.0839 
     98 H98        25.5569  -26.6282  -44.2558 H         1 UNK         0.0839 
     99 H99        24.9663  -28.2701  -43.9996 H         1 UNK         0.0839 
    100 H100       24.9082  -29.5373  -41.7956 H         1 UNK         0.2998 
    101 H101       26.9537  -31.3426  -40.7574 H         1 UNK         0.0822 
    102 H102       26.5218  -33.1525  -42.4594 H         1 UNK         0.0787 
    103 H103       25.5634  -32.0252  -43.4093 H         1 UNK         0.0787 
    104 H104       27.2915  -31.7535  -43.1848 H         1 UNK         0.0787 
    105 H105       23.6027  -30.5776  -41.4130 H         1 UNK         0.3055 
    106 H106       21.6961  -31.0918  -40.5366 H         1 UNK         0.1106 
    107 H107       22.8580  -31.0482  -38.2682 H         1 UNK         0.0828 
    108 H108       21.4488  -32.0912  -38.3078 H         1 UNK         0.0828 
    109 H109       23.0525  -32.7966  -38.3741 H         1 UNK         0.0828 
    110 H110       20.1116  -32.8427  -40.0169 H         1 UNK         0.2931 
    111 H111       20.0574  -34.5373  -42.3050 H         1 UNK         0.0412 
    112 H112       20.5193  -37.8757  -41.1609 H         1 UNK         0.3472 
    113 H113       19.9458  -36.8615  -42.4588 H         1 UNK         0.3472 
    114 H114       17.7695  -35.1290  -41.5287 H         1 UNK         0.0970 
    115 H115       18.0763  -34.4017  -39.9747 H         1 UNK         0.0970 
    116 H116       18.0617  -33.8388  -43.7680 H         1 UNK         0.0612 
    117 H117       16.3682  -33.6508  -43.3763 H         1 UNK         0.0612 
@<TRIPOS>BOND
     1    1    2 1    
     2    1   62 1    
     3    1   63 1    
     4    1   64 1    
     5    2    3 2    
     6    2    4 am   BACKBONE|DICT|INTERRES
     7    4    5 1    
     8    4   65 1    
     9    5    6 1    
    10    5   25 1    
    11    5   66 1    
    12    6    7 1    
    13    6   67 1    
    14    6   68 1    
    15    7    8 1    
    16    8    9 1    
    17    8   69 1    
    18    8   70 1    
    19    9   10 ar   
    20    9   14 ar   
    21   10   11 ar   
    22   10   71 1    
    23   11   12 ar   
    24   11   61 1    
    25   12   13 ar   
    26   12   72 1    
    27   13   14 ar   
    28   13   15 1    
    29   14   73 1    
    30   15   16 1    
    31   15   74 1    
    32   15   75 1    
    33   16   17 1    
    34   17   18 1    
    35   17   76 1    
    36   17   77 1    
    37   18   19 1    
    38   18   27 1    
    39   18   78 1    
    40   19   20 am   BACKBONE|DICT|INTERRES
    41   19   79 1    
    42   20   21 2    
    43   20   22 1    
    44   22   23 1    
    45   22   24 1    
    46   22   80 1    
    47   23   81 1    
    48   23   82 1    
    49   23   83 1    
    50   24   25 am   BACKBONE|DICT|INTERRES
    51   24   84 1    
    52   25   26 2    
    53   27   28 2    
    54   27   29 am   BACKBONE|DICT|INTERRES
    55   29   30 1    
    56   29   85 1    
    57   30   31 1    
    58   30   32 1    
    59   30   86 1    
    60   31   87 1    
    61   31   88 1    
    62   31   89 1    
    63   32   33 2    
    64   32   34 am   BACKBONE|DICT|INTERRES
    65   34   35 1    
    66   34   90 1    
    67   35   36 1    
    68   35   37 1    
    69   35   91 1    
    70   36   92 1    
    71   36   93 1    
    72   36   94 1    
    73   37   38 2    
    74   37   39 am   BACKBONE|DICT|INTERRES
    75   39   40 1    
    76   39   95 1    
    77   40   41 1    
    78   40   42 1    
    79   40   96 1    
    80   41   97 1    
    81   41   98 1    
    82   41   99 1    
    83   42   43 2    
    84   42   44 am   BACKBONE|DICT|INTERRES
    85   44   45 1    
    86   44  100 1    
    87   45   46 1    
    88   45   47 1    
    89   45  101 1    
    90   46  102 1    
    91   46  103 1    
    92   46  104 1    
    93   47   48 2    
    94   47   49 am   BACKBONE|DICT|INTERRES
    95   49   50 1    
    96   49  105 1    
    97   50   51 1    
    98   50   52 1    
    99   50  106 1    
   100   51  107 1    
   101   51  108 1    
   102   51  109 1    
   103   52   53 2    
   104   52   54 am   BACKBONE|DICT|INTERRES
   105   54   55 1    
   106   54  110 1    
   107   55   56 1    
   108   55   59 1    
   109   55  111 1    
   110   56   57 am   BACKBONE|DICT|INTERRES
   111   56   58 2    
   112   57  112 1    
   113   57  113 1    
   114   59   60 1    
   115   59  114 1    
   116   59  115 1    
   117   60   61 1    
   118   61  116 1    
   119   61  117 1    
@<TRIPOS>SUBSTRUCTURE
     1 UNK         1 GROUP             0       ****    0 ROOT    
