@<TRIPOS>MOLECULE
3R8
117   119    1
SMALL
USER_CHARGES


@<TRIPOS>ATOM
      1 CA         15.4722  -27.8758  -43.2423 C.3       0 UNK        -0.2013 
      2 C          16.0120  -26.8131  -44.1868 C.2       0 UNK         0.4866 
      3 O          15.4743  -25.7062  -44.2280 O.2       0 UNK        -0.5176 
      4 N          17.0460  -27.1482  -44.9692 N.am      1 UNK        -0.4884 
      5 CA         17.5969  -26.2885  -46.0217 C.3       1 UNK         0.0853 
      6 C6         18.3704  -27.1127  -47.0843 C.3       10 UNK        -0.0849 
      7 S7         19.9123  -27.9019  -46.4907 S.3       10 UNK        -0.2776 
      8 C8         19.5014  -29.6782  -46.4532 C.3       10 UNK         0.0316 
      9 C9         18.8407  -30.1783  -45.1674 C.ar      10 UNK        -0.0863 
     10 C10        18.0527  -31.3311  -45.2351 C.ar      10 UNK        -0.1009 
     11 C11        17.5314  -31.9110  -44.0759 C.ar      10 UNK        -0.0712 
     12 C12        17.7397  -31.2938  -42.8422 C.ar      10 UNK        -0.0894 
     13 C13        18.5421  -30.1560  -42.7499 C.ar      10 UNK        -0.0745 
     14 C14        19.0926  -29.6028  -43.9128 C.ar      10 UNK        -0.0972 
     15 C15        18.9096  -29.6075  -41.3807 C.3       10 UNK         0.0209 
     16 S16        18.2197  -27.9566  -41.0776 S.3       10 UNK        -0.2568 
     17 C17        19.5219  -27.2701  -40.0023 C.3       10 UNK        -0.0983 
     18 CA         20.7197  -26.7763  -40.8457 C.3       3 UNK         0.0876 
     19 N          20.3040  -25.7834  -41.8391 N.am      3 UNK        -0.4424 
     20 C          21.0515  -25.3743  -42.8668 C.2       2 UNK         0.4918 
     21 O          22.2189  -25.7258  -43.0426 O.2       2 UNK        -0.4875 
     22 CA         20.3212  -24.5298  -43.9177 C.3       2 UNK         0.0481 
     23 CB         21.2932  -23.9778  -44.9849 C.3       2 UNK        -0.1831 
     24 N          19.3086  -25.4022  -44.5129 N.am      2 UNK        -0.4498 
     25 C          18.4223  -25.1039  -45.4699 C.2       1 UNK         0.5027 
     26 O          18.2452  -23.9714  -45.9217 O.2       1 UNK        -0.4969 
     27 C          21.8914  -26.2961  -39.9694 C.2       3 UNK         0.5005 
     28 O          22.1342  -25.0917  -39.8576 O.2       3 UNK        -0.5279 
     29 N          22.6300  -27.2657  -39.4129 N.am      4 UNK        -0.4463 
     30 CA         23.9267  -27.1525  -38.7324 C.3       4 UNK         0.0283 
     31 CB         23.9328  -26.1159  -37.5915 C.3       4 UNK        -0.1875 
     32 C          25.0811  -26.9326  -39.7234 C.2       4 UNK         0.4949 
     33 O          26.0726  -27.6571  -39.6472 O.2       4 UNK        -0.5039 
     34 N          24.9167  -26.0039  -40.6772 N.am      5 UNK        -0.4663 
     35 CA         25.8175  -25.8289  -41.8223 C.3       5 UNK         0.0242 
     36 CB         25.5160  -24.5016  -42.5368 C.3       5 UNK        -0.1982 
     37 C          25.7335  -27.0245  -42.7876 C.2       5 UNK         0.5017 
     38 O          26.7663  -27.5879  -43.1486 O.2       5 UNK        -0.5012 
     39 N          24.5016  -27.4382  -43.1153 N.am      6 UNK        -0.4439 
     40 CA         24.1760  -28.6703  -43.8413 C.3       6 UNK         0.0297 
     41 CB         22.9604  -28.4094  -44.7466 C.3       6 UNK        -0.2006 
     42 C          23.9309  -29.8625  -42.8909 C.2       6 UNK         0.4892 
     43 O          23.1911  -30.7814  -43.2496 O.2       6 UNK        -0.5089 
     44 N          24.5487  -29.8293  -41.6995 N.am      7 UNK        -0.4243 
     45 CA         24.4599  -30.8185  -40.6204 C.3       7 UNK         0.0196 
     46 CB         25.1479  -32.1376  -41.0435 C.3       7 UNK        -0.2007 
     47 C          23.0158  -30.9979  -40.1084 C.2       7 UNK         0.5020 
     48 O          22.2642  -30.0200  -40.0588 O.2       7 UNK        -0.5147 
     49 N          22.6654  -32.2266  -39.7064 N.am      8 UNK        -0.4734 
     50 CA         21.3214  -32.6045  -39.2607 C.3       8 UNK         0.0238 
     51 CB         21.4227  -33.8079  -38.3092 C.3       8 UNK        -0.1912 
     52 C          20.3728  -32.9244  -40.4293 C.2       8 UNK         0.5038 
     53 O          19.1658  -32.7653  -40.2595 O.2       8 UNK        -0.5046 
     54 N          20.9367  -33.3645  -41.5622 N.am      9 UNK        -0.4200 
     55 CA         20.3152  -33.6567  -42.8633 C.3       9 UNK         0.0839 
     56 C          21.4232  -34.2099  -43.7997 C.2       9 UNK         0.5513 
     57 N          22.4570  -33.4276  -44.0849 N.am      9 UNK        -0.7519 
     58 O          21.3887  -35.3588  -44.2338 O.2       9 UNK        -0.4960 
     59 C59        19.0304  -34.5505  -42.7989 C.3       10 UNK        -0.0876 
     60 S60        18.0762  -34.6003  -44.3632 S.3       10 UNK        -0.2414 
     61 C61        16.8479  -33.2663  -44.1416 C.3       10 UNK         0.0169 
     62 H62        16.0637  -28.7898  -43.2757 H         1 UNK         0.0903 
     63 H63        15.4728  -27.5055  -42.2178 H         1 UNK         0.0903 
     64 H64        14.4468  -28.1282  -43.5104 H         1 UNK         0.0903 
     65 H65        17.4585  -28.0686  -44.8900 H         1 UNK         0.3096 
     66 H66        16.7455  -25.8407  -46.5406 H         1 UNK         0.1121 
     67 H67        18.6350  -26.4678  -47.9244 H         1 UNK         0.0849 
     68 H68        17.7120  -27.8733  -47.5064 H         1 UNK         0.0849 
     69 H69        18.8861  -29.9213  -47.3208 H         1 UNK         0.0865 
     70 H70        20.4306  -30.2355  -46.5799 H         1 UNK         0.0865 
     71 H71        17.9022  -31.8252  -46.1856 H         1 UNK         0.1346 
     72 H72        17.3542  -31.7529  -41.9421 H         1 UNK         0.1412 
     73 H73        19.7508  -28.7508  -43.8257 H         1 UNK         0.1426 
     74 H74        19.9957  -29.5970  -41.3057 H         1 UNK         0.0716 
     75 H75        18.5603  -30.2645  -40.5842 H         1 UNK         0.0716 
     76 H76        19.8282  -28.0354  -39.2861 H         1 UNK         0.0695 
     77 H77        19.0967  -26.4517  -39.4185 H         1 UNK         0.0695 
     78 H78        21.1071  -27.6244  -41.4144 H         1 UNK         0.0983 
     79 H79        19.3539  -25.4519  -41.7609 H         1 UNK         0.3095 
     80 H80        19.8272  -23.6979  -43.4127 H         1 UNK         0.0454 
     81 H81        20.7955  -23.2985  -45.6760 H         1 UNK         0.0851 
     82 H82        21.7443  -24.7806  -45.5699 H         1 UNK         0.0851 
     83 H83        22.1050  -23.4173  -44.5197 H         1 UNK         0.0851 
     84 H84        19.3556  -26.3684  -44.2206 H         1 UNK         0.2976 
     85 H85        22.3554  -28.2303  -39.6035 H         1 UNK         0.3116 
     86 H86        24.0897  -28.1298  -38.2749 H         1 UNK         0.0646 
     87 H87        23.8740  -25.0918  -37.9602 H         1 UNK         0.0847 
     88 H88        24.8525  -26.1914  -37.0103 H         1 UNK         0.0847 
     89 H89        23.1014  -26.2753  -36.9052 H         1 UNK         0.0847 
     90 H90        24.0636  -25.4546  -40.6620 H         1 UNK         0.3040 
     91 H91        26.8414  -25.7823  -41.4439 H         1 UNK         0.1015 
     92 H92        24.4968  -24.4624  -42.9203 H         1 UNK         0.0786 
     93 H93        26.1876  -24.3552  -43.3838 H         1 UNK         0.0786 
     94 H94        25.6522  -23.6529  -41.8662 H         1 UNK         0.0786 
     95 H95        23.7092  -26.8612  -42.8406 H         1 UNK         0.3172 
     96 H96        25.0150  -28.9434  -44.4841 H         1 UNK         0.0595 
     97 H97        22.0616  -28.2171  -44.1614 H         1 UNK         0.0839 
     98 H98        22.7526  -29.2675  -45.3869 H         1 UNK         0.0839 
     99 H99        23.1229  -27.5516  -45.3993 H         1 UNK         0.0839 
    100 H100       25.1275  -29.0253  -41.4998 H         1 UNK         0.2998 
    101 H101       25.0249  -30.4030  -39.7847 H         1 UNK         0.0822 
    102 H102       26.1461  -31.9472  -41.4382 H         1 UNK         0.0787 
    103 H103       25.2717  -32.8157  -40.1985 H         1 UNK         0.0787 
    104 H104       24.5857  -32.6632  -41.8166 H         1 UNK         0.0787 
    105 H105       23.3586  -32.9602  -39.7450 H         1 UNK         0.3055 
    106 H106       20.8841  -31.7695  -38.7076 H         1 UNK         0.1106 
    107 H107       20.4373  -34.0964  -37.9404 H         1 UNK         0.0828 
    108 H108       21.8540  -34.6806  -38.8012 H         1 UNK         0.0828 
    109 H109       22.0360  -33.5747  -37.4386 H         1 UNK         0.0828 
    110 H110       21.9431  -33.4482  -41.5754 H         1 UNK         0.2931 
    111 H111       20.0371  -32.6910  -43.2813 H         1 UNK         0.0412 
    112 H112       23.1852  -33.7882  -44.6801 H         1 UNK         0.3472 
    113 H113       22.5251  -32.4704  -43.7446 H         1 UNK         0.3472 
    114 H114       18.3429  -34.2114  -42.0276 H         1 UNK         0.0970 
    115 H115       19.2952  -35.5711  -42.5185 H         1 UNK         0.0970 
    116 H116       16.2598  -33.4547  -43.2420 H         1 UNK         0.0612 
    117 H117       16.1487  -33.2825  -44.9787 H         1 UNK         0.0612 
@<TRIPOS>BOND
     1    1    2 1    
     2    1   62 1    
     3    1   63 1    
     4    1   64 1    
     5    2    3 2    
     6    2    4 am   BACKBONE|DICT|INTERRES
     7    4    5 1    
     8    4   65 1    
     9    5    6 1    
    10    5   25 1    
    11    5   66 1    
    12    6    7 1    
    13    6   67 1    
    14    6   68 1    
    15    7    8 1    
    16    8    9 1    
    17    8   69 1    
    18    8   70 1    
    19    9   10 ar   
    20    9   14 ar   
    21   10   11 ar   
    22   10   71 1    
    23   11   12 ar   
    24   11   61 1    
    25   12   13 ar   
    26   12   72 1    
    27   13   14 ar   
    28   13   15 1    
    29   14   73 1    
    30   15   16 1    
    31   15   74 1    
    32   15   75 1    
    33   16   17 1    
    34   17   18 1    
    35   17   76 1    
    36   17   77 1    
    37   18   19 1    
    38   18   27 1    
    39   18   78 1    
    40   19   20 am   BACKBONE|DICT|INTERRES
    41   19   79 1    
    42   20   21 2    
    43   20   22 1    
    44   22   23 1    
    45   22   24 1    
    46   22   80 1    
    47   23   81 1    
    48   23   82 1    
    49   23   83 1    
    50   24   25 am   BACKBONE|DICT|INTERRES
    51   24   84 1    
    52   25   26 2    
    53   27   28 2    
    54   27   29 am   BACKBONE|DICT|INTERRES
    55   29   30 1    
    56   29   85 1    
    57   30   31 1    
    58   30   32 1    
    59   30   86 1    
    60   31   87 1    
    61   31   88 1    
    62   31   89 1    
    63   32   33 2    
    64   32   34 am   BACKBONE|DICT|INTERRES
    65   34   35 1    
    66   34   90 1    
    67   35   36 1    
    68   35   37 1    
    69   35   91 1    
    70   36   92 1    
    71   36   93 1    
    72   36   94 1    
    73   37   38 2    
    74   37   39 am   BACKBONE|DICT|INTERRES
    75   39   40 1    
    76   39   95 1    
    77   40   41 1    
    78   40   42 1    
    79   40   96 1    
    80   41   97 1    
    81   41   98 1    
    82   41   99 1    
    83   42   43 2    
    84   42   44 am   BACKBONE|DICT|INTERRES
    85   44   45 1    
    86   44  100 1    
    87   45   46 1    
    88   45   47 1    
    89   45  101 1    
    90   46  102 1    
    91   46  103 1    
    92   46  104 1    
    93   47   48 2    
    94   47   49 am   BACKBONE|DICT|INTERRES
    95   49   50 1    
    96   49  105 1    
    97   50   51 1    
    98   50   52 1    
    99   50  106 1    
   100   51  107 1    
   101   51  108 1    
   102   51  109 1    
   103   52   53 2    
   104   52   54 am   BACKBONE|DICT|INTERRES
   105   54   55 1    
   106   54  110 1    
   107   55   56 1    
   108   55   59 1    
   109   55  111 1    
   110   56   57 am   BACKBONE|DICT|INTERRES
   111   56   58 2    
   112   57  112 1    
   113   57  113 1    
   114   59   60 1    
   115   59  114 1    
   116   59  115 1    
   117   60   61 1    
   118   61  116 1    
   119   61  117 1    
@<TRIPOS>SUBSTRUCTURE
     1 UNK         1 GROUP             0       ****    0 ROOT    
