@<TRIPOS>MOLECULE
3R8
117   119    1
SMALL
USER_CHARGES


@<TRIPOS>ATOM
      1 CA         16.4075  -25.8193  -44.0214 C.3       0 UNK        -0.2013 
      2 C          16.1399  -24.6063  -44.9057 C.2       0 UNK         0.4866 
      3 O          15.1352  -23.9338  -44.6871 O.2       0 UNK        -0.5176 
      4 N          16.9804  -24.2471  -45.8890 N.am      1 UNK        -0.4884 
      5 CA         18.2198  -24.8676  -46.3933 C.3       1 UNK         0.0853 
      6 C6         18.0103  -26.2872  -47.0262 C.3       10 UNK        -0.0849 
      7 S7         18.6760  -27.7400  -46.1282 S.3       10 UNK        -0.2776 
      8 C8         17.2196  -28.8136  -45.9716 C.3       10 UNK         0.0316 
      9 C9         17.4621  -29.8555  -44.8932 C.ar      10 UNK        -0.0863 
     10 C10        18.0410  -31.0851  -45.2185 C.ar      10 UNK        -0.1009 
     11 C11        18.2983  -32.0334  -44.2238 C.ar      10 UNK        -0.0712 
     12 C12        17.9595  -31.7468  -42.8969 C.ar      10 UNK        -0.0894 
     13 C13        17.3689  -30.5241  -42.5620 C.ar      10 UNK        -0.0745 
     14 C14        17.1238  -29.5826  -43.5646 C.ar      10 UNK        -0.0972 
     15 C15        16.9652  -30.2362  -41.1234 C.3       10 UNK         0.0209 
     16 S16        18.3477  -29.5838  -40.1367 S.3       10 UNK        -0.2568 
     17 C17        18.4366  -27.8338  -40.6573 C.3       10 UNK        -0.0983 
     18 CA         19.7466  -27.4513  -41.3952 C.3       3 UNK         0.0876 
     19 N          19.6419  -26.0995  -41.9674 N.am      3 UNK        -0.4424 
     20 C          20.5956  -25.4432  -42.6454 C.2       2 UNK         0.4918 
     21 O          21.7196  -25.8961  -42.8646 O.2       2 UNK        -0.4875 
     22 CA         20.2055  -24.0422  -43.1540 C.3       2 UNK         0.0481 
     23 CB         21.4255  -23.1690  -43.5159 C.3       2 UNK        -0.1831 
     24 N          19.2548  -24.1320  -44.2681 N.am      2 UNK        -0.4498 
     25 C          19.4518  -24.7080  -45.4663 C.2       1 UNK         0.5027 
     26 O          20.5522  -25.0861  -45.8699 O.2       1 UNK        -0.4969 
     27 C          20.9886  -27.6312  -40.4899 C.2       3 UNK         0.5005 
     28 O          21.6510  -28.6665  -40.5668 O.2       3 UNK        -0.5279 
     29 N          21.3070  -26.6053  -39.6852 N.am      4 UNK        -0.4463 
     30 CA         22.4801  -26.5687  -38.8078 C.3       4 UNK         0.0283 
     31 CB         22.3752  -25.3658  -37.8571 C.3       4 UNK        -0.1875 
     32 C          23.8144  -26.5355  -39.5735 C.2       4 UNK         0.4949 
     33 O          24.7644  -27.1927  -39.1505 O.2       4 UNK        -0.5039 
     34 N          23.8605  -25.8008  -40.6948 N.am      5 UNK        -0.4663 
     35 CA         25.0256  -25.7276  -41.5844 C.3       5 UNK         0.0242 
     36 CB         24.9068  -24.5009  -42.5024 C.3       5 UNK        -0.1982 
     37 C          25.1970  -27.0128  -42.4098 C.2       5 UNK         0.5017 
     38 O          26.3278  -27.4415  -42.6388 O.2       5 UNK        -0.5012 
     39 N          24.0695  -27.6264  -42.7957 N.am      6 UNK        -0.4439 
     40 CA         23.9952  -28.9464  -43.4274 C.3       6 UNK         0.0297 
     41 CB         22.6007  -29.1192  -44.0557 C.3       6 UNK        -0.2006 
     42 C          24.2933  -30.1118  -42.4612 C.2       6 UNK         0.4892 
     43 O          24.4018  -31.2477  -42.9238 O.2       6 UNK        -0.5089 
     44 N          24.3779  -29.8293  -41.1501 N.am      7 UNK        -0.4243 
     45 CA         24.5621  -30.7668  -40.0340 C.3       7 UNK         0.0196 
     46 CB         25.9857  -31.3611  -40.0576 C.3       7 UNK        -0.2007 
     47 C          23.4624  -31.8454  -39.9832 C.2       7 UNK         0.5020 
     48 O          23.7516  -33.0129  -39.7129 O.2       7 UNK        -0.5147 
     49 N          22.2266  -31.4401  -40.3148 N.am      8 UNK        -0.4734 
     50 CA         21.0342  -32.2751  -40.5128 C.3       8 UNK         0.0238 
     51 CB         20.5073  -32.7903  -39.1582 C.3       8 UNK        -0.1912 
     52 C          21.2221  -33.4052  -41.5487 C.2       8 UNK         0.5038 
     53 O          20.5384  -34.4268  -41.4635 O.2       8 UNK        -0.5046 
     54 N          22.1481  -33.2029  -42.4968 N.am      9 UNK        -0.4200 
     55 CA         22.5946  -34.1685  -43.5123 C.3       9 UNK         0.0839 
     56 C          23.3996  -35.3722  -42.9347 C.2       9 UNK         0.5513 
     57 N          23.9010  -35.3112  -41.7055 N.am      9 UNK        -0.7519 
     58 O          23.6010  -36.3714  -43.6208 O.2       9 UNK        -0.4960 
     59 C59        21.4747  -34.6046  -44.5017 C.3       10 UNK        -0.0876 
     60 S60        20.6068  -33.1813  -45.2515 S.3       10 UNK        -0.2414 
     61 C61        18.9209  -33.3742  -44.5853 C.3       10 UNK         0.0169 
     62 H62        15.6664  -26.5899  -44.2265 H         1 UNK         0.0903 
     63 H63        17.3972  -26.2458  -44.1495 H         1 UNK         0.0903 
     64 H64        16.3068  -25.5393  -42.9733 H         1 UNK         0.0903 
     65 H65        16.7290  -23.4095  -46.3978 H         1 UNK         0.3096 
     66 H66        18.4764  -24.2181  -47.2327 H         1 UNK         0.1121 
     67 H67        18.5032  -26.3016  -47.9998 H         1 UNK         0.0849 
     68 H68        16.9561  -26.4488  -47.2557 H         1 UNK         0.0849 
     69 H69        16.3334  -28.2265  -45.7326 H         1 UNK         0.0865 
     70 H70        17.0186  -29.2939  -46.9306 H         1 UNK         0.0865 
     71 H71        18.3074  -31.3005  -46.2444 H         1 UNK         0.1346 
     72 H72        18.1447  -32.4796  -42.1233 H         1 UNK         0.1412 
     73 H73        16.6698  -28.6363  -43.3094 H         1 UNK         0.1426 
     74 H74        16.1239  -29.5422  -41.0872 H         1 UNK         0.0716 
     75 H75        16.6126  -31.1572  -40.6565 H         1 UNK         0.0716 
     76 H76        18.3045  -27.2128  -39.7694 H         1 UNK         0.0695 
     77 H77        17.5787  -27.6170  -41.2946 H         1 UNK         0.0695 
     78 H78        19.8662  -28.1335  -42.2397 H         1 UNK         0.0983 
     79 H79        18.7575  -25.6344  -41.8287 H         1 UNK         0.3095 
     80 H80        19.6816  -23.5402  -42.3392 H         1 UNK         0.0454 
     81 H81        21.1180  -22.1788  -43.8513 H         1 UNK         0.0851 
     82 H82        22.0339  -23.6135  -44.3036 H         1 UNK         0.0851 
     83 H83        22.0722  -23.0302  -42.6491 H         1 UNK         0.0851 
     84 H84        18.3221  -23.7960  -44.0742 H         1 UNK         0.2976 
     85 H85        20.7075  -25.7929  -39.6836 H         1 UNK         0.3116 
     86 H86        22.4707  -27.4791  -38.2043 H         1 UNK         0.0646 
     87 H87        21.4772  -25.4224  -37.2417 H         1 UNK         0.0847 
     88 H88        23.2282  -25.3315  -37.1778 H         1 UNK         0.0847 
     89 H89        22.3535  -24.4195  -38.3990 H         1 UNK         0.0847 
     90 H90        23.0176  -25.3425  -41.0116 H         1 UNK         0.3040 
     91 H91        25.9204  -25.6064  -40.9692 H         1 UNK         0.1015 
     92 H92        24.0631  -24.5874  -43.1870 H         1 UNK         0.0786 
     93 H93        25.8047  -24.3853  -43.1109 H         1 UNK         0.0786 
     94 H94        24.7844  -23.5825  -41.9281 H         1 UNK         0.0786 
     95 H95        23.1873  -27.1498  -42.6264 H         1 UNK         0.3172 
     96 H96        24.7385  -28.9847  -44.2262 H         1 UNK         0.0595 
     97 H97        21.8170  -29.1375  -43.2986 H         1 UNK         0.0839 
     98 H98        22.5335  -30.0560  -44.6110 H         1 UNK         0.0839 
     99 H99        22.3721  -28.3124  -44.7528 H         1 UNK         0.0839 
    100 H100       24.2201  -28.8681  -40.8785 H         1 UNK         0.2998 
    101 H101       24.4585  -30.1803  -39.1198 H         1 UNK         0.0822 
    102 H102       26.1725  -31.9649  -39.1687 H         1 UNK         0.0787 
    103 H103       26.1414  -32.0028  -40.9257 H         1 UNK         0.0787 
    104 H104       26.7416  -30.5761  -40.0804 H         1 UNK         0.0787 
    105 H105       22.0912  -30.4441  -40.4943 H         1 UNK         0.3055 
    106 H106       20.2769  -31.6163  -40.9375 H         1 UNK         0.1106 
    107 H107       19.5503  -33.2998  -39.2768 H         1 UNK         0.0828 
    108 H108       21.1995  -33.4963  -38.6986 H         1 UNK         0.0828 
    109 H109       20.3482  -31.9693  -38.4591 H         1 UNK         0.0828 
    110 H110       22.6975  -32.3520  -42.4623 H         1 UNK         0.2931 
    111 H111       23.3286  -33.6179  -44.1014 H         1 UNK         0.0412 
    112 H112       24.4279  -36.0931  -41.3503 H         1 UNK         0.3472 
    113 H113       23.7610  -34.4924  -41.1229 H         1 UNK         0.3472 
    114 H114       20.7675  -35.2740  -44.0107 H         1 UNK         0.0970 
    115 H115       21.9057  -35.1853  -45.3190 H         1 UNK         0.0970 
    116 H116       18.9310  -34.0243  -43.7101 H         1 UNK         0.0612 
    117 H117       18.3005  -33.8743  -45.3301 H         1 UNK         0.0612 
@<TRIPOS>BOND
     1    1    2 1    
     2    1   62 1    
     3    1   63 1    
     4    1   64 1    
     5    2    3 2    
     6    2    4 am   BACKBONE|DICT|INTERRES
     7    4    5 1    
     8    4   65 1    
     9    5    6 1    
    10    5   25 1    
    11    5   66 1    
    12    6    7 1    
    13    6   67 1    
    14    6   68 1    
    15    7    8 1    
    16    8    9 1    
    17    8   69 1    
    18    8   70 1    
    19    9   10 ar   
    20    9   14 ar   
    21   10   11 ar   
    22   10   71 1    
    23   11   12 ar   
    24   11   61 1    
    25   12   13 ar   
    26   12   72 1    
    27   13   14 ar   
    28   13   15 1    
    29   14   73 1    
    30   15   16 1    
    31   15   74 1    
    32   15   75 1    
    33   16   17 1    
    34   17   18 1    
    35   17   76 1    
    36   17   77 1    
    37   18   19 1    
    38   18   27 1    
    39   18   78 1    
    40   19   20 am   BACKBONE|DICT|INTERRES
    41   19   79 1    
    42   20   21 2    
    43   20   22 1    
    44   22   23 1    
    45   22   24 1    
    46   22   80 1    
    47   23   81 1    
    48   23   82 1    
    49   23   83 1    
    50   24   25 am   BACKBONE|DICT|INTERRES
    51   24   84 1    
    52   25   26 2    
    53   27   28 2    
    54   27   29 am   BACKBONE|DICT|INTERRES
    55   29   30 1    
    56   29   85 1    
    57   30   31 1    
    58   30   32 1    
    59   30   86 1    
    60   31   87 1    
    61   31   88 1    
    62   31   89 1    
    63   32   33 2    
    64   32   34 am   BACKBONE|DICT|INTERRES
    65   34   35 1    
    66   34   90 1    
    67   35   36 1    
    68   35   37 1    
    69   35   91 1    
    70   36   92 1    
    71   36   93 1    
    72   36   94 1    
    73   37   38 2    
    74   37   39 am   BACKBONE|DICT|INTERRES
    75   39   40 1    
    76   39   95 1    
    77   40   41 1    
    78   40   42 1    
    79   40   96 1    
    80   41   97 1    
    81   41   98 1    
    82   41   99 1    
    83   42   43 2    
    84   42   44 am   BACKBONE|DICT|INTERRES
    85   44   45 1    
    86   44  100 1    
    87   45   46 1    
    88   45   47 1    
    89   45  101 1    
    90   46  102 1    
    91   46  103 1    
    92   46  104 1    
    93   47   48 2    
    94   47   49 am   BACKBONE|DICT|INTERRES
    95   49   50 1    
    96   49  105 1    
    97   50   51 1    
    98   50   52 1    
    99   50  106 1    
   100   51  107 1    
   101   51  108 1    
   102   51  109 1    
   103   52   53 2    
   104   52   54 am   BACKBONE|DICT|INTERRES
   105   54   55 1    
   106   54  110 1    
   107   55   56 1    
   108   55   59 1    
   109   55  111 1    
   110   56   57 am   BACKBONE|DICT|INTERRES
   111   56   58 2    
   112   57  112 1    
   113   57  113 1    
   114   59   60 1    
   115   59  114 1    
   116   59  115 1    
   117   60   61 1    
   118   61  116 1    
   119   61  117 1    
@<TRIPOS>SUBSTRUCTURE
     1 UNK         1 GROUP             0       ****    0 ROOT    
