@<TRIPOS>MOLECULE
3R8
117   119    1
SMALL
USER_CHARGES


@<TRIPOS>ATOM
      1 CA         17.6236  -22.7817  -42.3733 C.3       0 UNK        -0.2013 
      2 C          17.1985  -23.3785  -43.7063 C.2       0 UNK         0.4866 
      3 O          16.8411  -22.6413  -44.6245 O.2       0 UNK        -0.5176 
      4 N          17.2471  -24.7108  -43.8256 N.am      1 UNK        -0.4884 
      5 CA         16.8302  -25.4744  -45.0112 C.3       1 UNK         0.0853 
      6 C6         16.4550  -26.9364  -44.6536 C.3       10 UNK        -0.0849 
      7 S7         15.3584  -27.1576  -43.2101 S.3       10 UNK        -0.2776 
      8 C8         14.7459  -28.8603  -43.4762 C.3       10 UNK         0.0316 
      9 C9         15.8746  -29.8754  -43.6298 C.ar      10 UNK        -0.0863 
     10 C10        16.4249  -30.5154  -42.5135 C.ar      10 UNK        -0.1009 
     11 C11        17.4740  -31.4311  -42.6650 C.ar      10 UNK        -0.0712 
     12 C12        17.9825  -31.6899  -43.9431 C.ar      10 UNK        -0.0894 
     13 C13        17.4569  -31.0380  -45.0614 C.ar      10 UNK        -0.0745 
     14 C14        16.3788  -30.1654  -44.9010 C.ar      10 UNK        -0.0972 
     15 C15        18.0530  -31.2548  -46.4447 C.3       10 UNK         0.0209 
     16 S16        18.8119  -29.7309  -47.1063 S.3       10 UNK        -0.2568 
     17 C17        20.4904  -29.7430  -46.3714 C.3       10 UNK        -0.0983 
     18 CA         20.9672  -28.4142  -45.7082 C.3       3 UNK         0.0876 
     19 N          20.5036  -27.2153  -46.4098 N.am      3 UNK        -0.4424 
     20 C          21.1133  -26.0242  -46.3743 C.2       2 UNK         0.4918 
     21 O          22.2728  -25.8646  -45.9928 O.2       2 UNK        -0.4875 
     22 CA         20.2653  -24.7902  -46.7280 C.3       2 UNK         0.0481 
     23 CB         20.0680  -24.6326  -48.2488 C.3       2 UNK        -0.1831 
     24 N          19.0061  -24.7567  -45.9656 N.am      2 UNK        -0.4498 
     25 C          17.8945  -25.4894  -46.1381 C.2       1 UNK         0.5027 
     26 O          17.7218  -26.2258  -47.1097 O.2       1 UNK        -0.4969 
     27 C          20.5606  -28.2705  -44.2280 C.2       3 UNK         0.5005 
     28 O          19.4988  -28.7416  -43.8326 O.2       3 UNK        -0.5279 
     29 N          21.3740  -27.5501  -43.4488 N.am      4 UNK        -0.4463 
     30 CA         21.1458  -27.2140  -42.0460 C.3       4 UNK         0.0283 
     31 CB         19.9893  -26.1987  -41.9198 C.3       4 UNK        -0.1875 
     32 C          22.4442  -26.6404  -41.4644 C.2       4 UNK         0.4949 
     33 O          23.3737  -26.3488  -42.2216 O.2       4 UNK        -0.5039 
     34 N          22.4684  -26.4726  -40.1334 N.am      5 UNK        -0.4663 
     35 CA         23.5630  -25.8975  -39.3344 C.3       5 UNK         0.0242 
     36 CB         23.7380  -24.3957  -39.6499 C.3       5 UNK        -0.1982 
     37 C          24.8801  -26.6930  -39.4441 C.2       5 UNK         0.5017 
     38 O          25.9606  -26.1039  -39.5141 O.2       5 UNK        -0.5012 
     39 N          24.7581  -28.0235  -39.4540 N.am      6 UNK        -0.4439 
     40 CA         25.8458  -28.9902  -39.5402 C.3       6 UNK         0.0297 
     41 CB         26.2694  -29.1684  -41.0100 C.3       6 UNK        -0.2006 
     42 C          25.3604  -30.3114  -38.9350 C.2       6 UNK         0.4892 
     43 O          24.1491  -30.5027  -38.7801 O.2       6 UNK        -0.5089 
     44 N          26.3106  -31.2002  -38.6140 N.am      7 UNK        -0.4243 
     45 CA         26.0630  -32.5406  -38.0757 C.3       7 UNK         0.0196 
     46 CB         27.4046  -33.2336  -37.7858 C.3       7 UNK        -0.2007 
     47 C          25.2096  -33.3791  -39.0402 C.2       7 UNK         0.5020 
     48 O          25.5980  -33.5515  -40.1977 O.2       7 UNK        -0.5147 
     49 N          24.0405  -33.8259  -38.5592 N.am      8 UNK        -0.4734 
     50 CA         22.9909  -34.5309  -39.3117 C.3       8 UNK         0.0238 
     51 CB         23.4560  -35.9570  -39.6780 C.3       8 UNK        -0.1912 
     52 C          22.4736  -33.7419  -40.5358 C.2       8 UNK         0.5038 
     53 O          22.0734  -34.3549  -41.5270 O.2       8 UNK        -0.5046 
     54 N          22.5125  -32.4032  -40.4471 N.am      9 UNK        -0.4200 
     55 CA         22.2061  -31.4429  -41.5203 C.3       9 UNK         0.0839 
     56 C          23.2513  -31.4143  -42.6776 C.2       9 UNK         0.5513 
     57 N          24.4202  -32.0312  -42.5424 N.am      9 UNK        -0.7519 
     58 O          23.0155  -30.7892  -43.7084 O.2       9 UNK        -0.4960 
     59 C59        20.7463  -31.5457  -42.0437 C.3       10 UNK        -0.0876 
     60 S60        19.4903  -31.2580  -40.7518 S.3       10 UNK        -0.2414 
     61 C61        18.0582  -32.1423  -41.4502 C.3       10 UNK         0.0169 
     62 H62        18.4688  -22.1087  -42.5150 H         1 UNK         0.0903 
     63 H63        16.8027  -22.2109  -41.9400 H         1 UNK         0.0903 
     64 H64        17.9172  -23.5489  -41.6569 H         1 UNK         0.0903 
     65 H65        17.5150  -25.2727  -43.0304 H         1 UNK         0.3096 
     66 H66        15.9418  -24.9946  -45.4283 H         1 UNK         0.1121 
     67 H67        17.3554  -27.5211  -44.4622 H         1 UNK         0.0849 
     68 H68        15.9686  -27.3976  -45.5144 H         1 UNK         0.0849 
     69 H69        14.1079  -29.1412  -42.6369 H         1 UNK         0.0865 
     70 H70        14.1047  -28.8762  -44.3589 H         1 UNK         0.0865 
     71 H71        16.0416  -30.2961  -41.5264 H         1 UNK         0.1346 
     72 H72        18.8027  -32.3822  -44.0659 H         1 UNK         0.1412 
     73 H73        15.9649  -29.6759  -45.7713 H         1 UNK         0.1426 
     74 H74        17.2585  -31.5704  -47.1222 H         1 UNK         0.0716 
     75 H75        18.7880  -32.0611  -46.4400 H         1 UNK         0.0716 
     76 H76        21.1750  -29.9867  -47.1849 H         1 UNK         0.0695 
     77 H77        20.5802  -30.5737  -45.6684 H         1 UNK         0.0695 
     78 H78        22.0595  -28.4353  -45.7308 H         1 UNK         0.0983 
     79 H79        19.5417  -27.2479  -46.7297 H         1 UNK         0.3095 
     80 H80        20.8243  -23.9165  -46.3892 H         1 UNK         0.0454 
     81 H81        19.6053  -25.5092  -48.7024 H         1 UNK         0.0851 
     82 H82        21.0275  -24.4877  -48.7463 H         1 UNK         0.0851 
     83 H83        19.4484  -23.7667  -48.4813 H         1 UNK         0.0851 
     84 H84        19.0336  -24.1933  -45.1273 H         1 UNK         0.2976 
     85 H85        22.2359  -27.1678  -43.8251 H         1 UNK         0.3116 
     86 H86        20.8981  -28.1280  -41.5019 H         1 UNK         0.0646 
     87 H87        19.0478  -26.6259  -42.2641 H         1 UNK         0.0847 
     88 H88        20.1841  -25.2966  -42.5011 H         1 UNK         0.0847 
     89 H89        19.8352  -25.8937  -40.8843 H         1 UNK         0.0847 
     90 H90        21.6526  -26.7551  -39.6068 H         1 UNK         0.3040 
     91 H91        23.2565  -25.9755  -38.2898 H         1 UNK         0.1015 
     92 H92        24.1022  -24.2341  -40.6650 H         1 UNK         0.0786 
     93 H93        24.4559  -23.9341  -38.9706 H         1 UNK         0.0786 
     94 H94        22.7979  -23.8550  -39.5408 H         1 UNK         0.0786 
     95 H95        23.8448  -28.4442  -39.3314 H         1 UNK         0.3172 
     96 H96        26.6941  -28.6356  -38.9509 H         1 UNK         0.0595 
     97 H97        25.4293  -29.4729  -41.6347 H         1 UNK         0.0839 
     98 H98        27.0459  -29.9274  -41.1127 H         1 UNK         0.0839 
     99 H99        26.6681  -28.2413  -41.4222 H         1 UNK         0.0839 
    100 H100       27.2743  -30.9649  -38.8023 H         1 UNK         0.2998 
    101 H101       25.5273  -32.4236  -37.1312 H         1 UNK         0.0822 
    102 H102       27.9950  -32.6715  -37.0620 H         1 UNK         0.0787 
    103 H103       27.2463  -34.2297  -37.3701 H         1 UNK         0.0787 
    104 H104       28.0029  -33.3500  -38.6907 H         1 UNK         0.0787 
    105 H105       23.8078  -33.6031  -37.6003 H         1 UNK         0.3055 
    106 H106       22.1365  -34.6251  -38.6392 H         1 UNK         0.1106 
    107 H107       24.2689  -35.9429  -40.4049 H         1 UNK         0.0828 
    108 H108       22.6411  -36.5363  -40.1140 H         1 UNK         0.0828 
    109 H109       23.8015  -36.5006  -38.7988 H         1 UNK         0.0828 
    110 H110       22.9081  -31.9870  -39.6117 H         1 UNK         0.2931 
    111 H111       22.3052  -30.4628  -41.0523 H         1 UNK         0.0412 
    112 H112       24.6511  -32.5498  -41.7021 H         1 UNK         0.3472 
    113 H113       25.0818  -31.9923  -43.3007 H         1 UNK         0.3472 
    114 H114       20.5786  -32.5174  -42.5077 H         1 UNK         0.0970 
    115 H115       20.5699  -30.8124  -42.8278 H         1 UNK         0.0970 
    116 H116       18.3486  -33.1613  -41.7105 H         1 UNK         0.0612 
    117 H117       17.2960  -32.2346  -40.6751 H         1 UNK         0.0612 
@<TRIPOS>BOND
     1    1    2 1    
     2    1   62 1    
     3    1   63 1    
     4    1   64 1    
     5    2    3 2    
     6    2    4 am   BACKBONE|DICT|INTERRES
     7    4    5 1    
     8    4   65 1    
     9    5    6 1    
    10    5   25 1    
    11    5   66 1    
    12    6    7 1    
    13    6   67 1    
    14    6   68 1    
    15    7    8 1    
    16    8    9 1    
    17    8   69 1    
    18    8   70 1    
    19    9   10 ar   
    20    9   14 ar   
    21   10   11 ar   
    22   10   71 1    
    23   11   12 ar   
    24   11   61 1    
    25   12   13 ar   
    26   12   72 1    
    27   13   14 ar   
    28   13   15 1    
    29   14   73 1    
    30   15   16 1    
    31   15   74 1    
    32   15   75 1    
    33   16   17 1    
    34   17   18 1    
    35   17   76 1    
    36   17   77 1    
    37   18   19 1    
    38   18   27 1    
    39   18   78 1    
    40   19   20 am   BACKBONE|DICT|INTERRES
    41   19   79 1    
    42   20   21 2    
    43   20   22 1    
    44   22   23 1    
    45   22   24 1    
    46   22   80 1    
    47   23   81 1    
    48   23   82 1    
    49   23   83 1    
    50   24   25 am   BACKBONE|DICT|INTERRES
    51   24   84 1    
    52   25   26 2    
    53   27   28 2    
    54   27   29 am   BACKBONE|DICT|INTERRES
    55   29   30 1    
    56   29   85 1    
    57   30   31 1    
    58   30   32 1    
    59   30   86 1    
    60   31   87 1    
    61   31   88 1    
    62   31   89 1    
    63   32   33 2    
    64   32   34 am   BACKBONE|DICT|INTERRES
    65   34   35 1    
    66   34   90 1    
    67   35   36 1    
    68   35   37 1    
    69   35   91 1    
    70   36   92 1    
    71   36   93 1    
    72   36   94 1    
    73   37   38 2    
    74   37   39 am   BACKBONE|DICT|INTERRES
    75   39   40 1    
    76   39   95 1    
    77   40   41 1    
    78   40   42 1    
    79   40   96 1    
    80   41   97 1    
    81   41   98 1    
    82   41   99 1    
    83   42   43 2    
    84   42   44 am   BACKBONE|DICT|INTERRES
    85   44   45 1    
    86   44  100 1    
    87   45   46 1    
    88   45   47 1    
    89   45  101 1    
    90   46  102 1    
    91   46  103 1    
    92   46  104 1    
    93   47   48 2    
    94   47   49 am   BACKBONE|DICT|INTERRES
    95   49   50 1    
    96   49  105 1    
    97   50   51 1    
    98   50   52 1    
    99   50  106 1    
   100   51  107 1    
   101   51  108 1    
   102   51  109 1    
   103   52   53 2    
   104   52   54 am   BACKBONE|DICT|INTERRES
   105   54   55 1    
   106   54  110 1    
   107   55   56 1    
   108   55   59 1    
   109   55  111 1    
   110   56   57 am   BACKBONE|DICT|INTERRES
   111   56   58 2    
   112   57  112 1    
   113   57  113 1    
   114   59   60 1    
   115   59  114 1    
   116   59  115 1    
   117   60   61 1    
   118   61  116 1    
   119   61  117 1    
@<TRIPOS>SUBSTRUCTURE
     1 UNK         1 GROUP             0       ****    0 ROOT    
