@<TRIPOS>MOLECULE
3R8
117   119    1
SMALL
USER_CHARGES


@<TRIPOS>ATOM
      1 CA         14.7688  -25.9497  -48.8263 C.3       0 UNK        -0.2013 
      2 C          15.8999  -26.8192  -48.2975 C.2       0 UNK         0.4866 
      3 O          16.6731  -27.3648  -49.0858 O.2       0 UNK        -0.5176 
      4 N          15.9969  -26.9608  -46.9701 N.am      1 UNK        -0.4884 
      5 CA         17.0462  -27.7214  -46.2841 C.3       1 UNK         0.0853 
      6 C6         16.7226  -27.9274  -44.7851 C.3       10 UNK        -0.0849 
      7 S7         15.1688  -28.8312  -44.4728 S.3       10 UNK        -0.2776 
      8 C8         15.7778  -30.3879  -43.7262 C.3       10 UNK         0.0316 
      9 C9         16.5620  -30.2636  -42.4134 C.ar      10 UNK        -0.0863 
     10 C10        17.1601  -31.4167  -41.8941 C.ar      10 UNK        -0.1009 
     11 C11        17.9127  -31.3701  -40.7171 C.ar      10 UNK        -0.0712 
     12 C12        18.0741  -30.1510  -40.0531 C.ar      10 UNK        -0.0894 
     13 C13        17.4699  -28.9911  -40.5443 C.ar      10 UNK        -0.0745 
     14 C14        16.7049  -29.0570  -41.7119 C.ar      10 UNK        -0.0972 
     15 C15        17.6126  -27.6743  -39.7924 C.3       10 UNK         0.0209 
     16 S16        19.2776  -26.9518  -39.9510 S.3       10 UNK        -0.2568 
     17 C17        19.3006  -26.3603  -41.6788 C.3       10 UNK        -0.0983 
     18 CA         20.6133  -26.7517  -42.4025 C.3       3 UNK         0.0876 
     19 N          20.4382  -26.7916  -43.8540 N.am      3 UNK        -0.4424 
     20 C          21.2246  -27.4706  -44.6993 C.2       2 UNK         0.4918 
     21 O          22.1543  -28.1948  -44.3352 O.2       2 UNK        -0.4875 
     22 CA         20.8644  -27.3481  -46.1928 C.3       2 UNK         0.0481 
     23 CB         21.8021  -28.1502  -47.1106 C.3       2 UNK        -0.1831 
     24 N          19.4893  -27.8060  -46.3976 N.am      2 UNK        -0.4498 
     25 C          18.4111  -27.0130  -46.3855 C.2       1 UNK         0.5027 
     26 O          18.4686  -25.7814  -46.3367 O.2       1 UNK        -0.4969 
     27 C          21.7836  -25.8160  -42.0324 C.2       3 UNK         0.5005 
     28 O          22.0184  -24.8191  -42.7213 O.2       3 UNK        -0.5279 
     29 N          22.4827  -26.1523  -40.9457 N.am      4 UNK        -0.4463 
     30 CA         23.6575  -25.4793  -40.4005 C.3       4 UNK         0.0283 
     31 CB         24.8599  -25.6394  -41.3582 C.3       4 UNK        -0.1875 
     32 C          23.9462  -26.1051  -39.0273 C.2       4 UNK         0.4949 
     33 O          23.2052  -26.9919  -38.5940 O.2       4 UNK        -0.5039 
     34 N          25.0402  -25.6765  -38.3808 N.am      5 UNK        -0.4663 
     35 CA         25.5677  -26.2923  -37.1529 C.3       5 UNK         0.0242 
     36 CB         26.7258  -25.4403  -36.6091 C.3       5 UNK        -0.1982 
     37 C          26.0177  -27.7535  -37.3577 C.2       5 UNK         0.5017 
     38 O          25.9117  -28.5597  -36.4333 O.2       5 UNK        -0.5012 
     39 N          26.4661  -28.0634  -38.5797 N.am      6 UNK        -0.4439 
     40 CA         26.6803  -29.4067  -39.1043 C.3       6 UNK         0.0297 
     41 CB         28.1811  -29.6165  -39.3793 C.3       6 UNK        -0.2006 
     42 C          25.8178  -29.5169  -40.3692 C.2       6 UNK         0.4892 
     43 O          26.3308  -29.3696  -41.4797 O.2       6 UNK        -0.5089 
     44 N          24.5037  -29.6773  -40.1627 N.am      7 UNK        -0.4243 
     45 CA         23.4758  -29.7322  -41.2053 C.3       7 UNK         0.0196 
     46 CB         22.0936  -29.8471  -40.5377 C.3       7 UNK        -0.2007 
     47 C          23.6759  -30.8996  -42.1843 C.2       7 UNK         0.5020 
     48 O          23.9930  -32.0118  -41.7567 O.2       7 UNK        -0.5147 
     49 N          23.4223  -30.6399  -43.4705 N.am      8 UNK        -0.4734 
     50 CA         23.3757  -31.6463  -44.5282 C.3       8 UNK         0.0238 
     51 CB         24.0665  -31.0915  -45.7866 C.3       8 UNK        -0.1912 
     52 C          21.9042  -32.0199  -44.7562 C.2       8 UNK         0.5038 
     53 O          21.3046  -31.6125  -45.7527 O.2       8 UNK        -0.5046 
     54 N          21.3427  -32.7348  -43.7745 N.am      9 UNK        -0.4200 
     55 CA         19.9426  -33.1739  -43.7042 C.3       9 UNK         0.0839 
     56 C          19.5062  -34.0294  -44.9254 C.2       9 UNK         0.5513 
     57 N          18.2944  -33.8294  -45.4249 N.am      9 UNK        -0.7519 
     58 O          20.2370  -34.9040  -45.3866 O.2       9 UNK        -0.4960 
     59 C59        19.6701  -33.9497  -42.3891 C.3       10 UNK        -0.0876 
     60 S60        20.1391  -33.0219  -40.8856 S.3       10 UNK        -0.2414 
     61 C61        18.5246  -32.6384  -40.1404 C.3       10 UNK         0.0169 
     62 H62        14.1594  -25.5389  -48.0215 H         1 UNK         0.0903 
     63 H63        15.1734  -25.1184  -49.4032 H         1 UNK         0.0903 
     64 H64        14.1199  -26.5337  -49.4785 H         1 UNK         0.0903 
     65 H65        15.3382  -26.4882  -46.3674 H         1 UNK         0.3096 
     66 H66        17.1239  -28.6985  -46.7669 H         1 UNK         0.1121 
     67 H67        17.5433  -28.4587  -44.2989 H         1 UNK         0.0849 
     68 H68        16.6497  -26.9641  -44.2753 H         1 UNK         0.0849 
     69 H69        14.9181  -31.0366  -43.5528 H         1 UNK         0.0865 
     70 H70        16.4000  -30.8956  -44.4647 H         1 UNK         0.0865 
     71 H71        17.0364  -32.3599  -42.4076 H         1 UNK         0.1346 
     72 H72        18.6589  -30.1048  -39.1444 H         1 UNK         0.1412 
     73 H73        16.2276  -28.1558  -42.0668 H         1 UNK         0.1426 
     74 H74        17.4079  -27.8465  -38.7348 H         1 UNK         0.0716 
     75 H75        16.8713  -26.9477  -40.1289 H         1 UNK         0.0716 
     76 H76        19.1371  -25.2809  -41.6953 H         1 UNK         0.0695 
     77 H77        18.4484  -26.7975  -42.2000 H         1 UNK         0.0695 
     78 H78        20.8785  -27.7646  -42.0963 H         1 UNK         0.0983 
     79 H79        19.7385  -26.1746  -44.2413 H         1 UNK         0.3095 
     80 H80        20.9624  -26.2950  -46.4642 H         1 UNK         0.0454 
     81 H81        21.7072  -29.2225  -46.9424 H         1 UNK         0.0851 
     82 H82        22.8450  -27.8770  -46.9450 H         1 UNK         0.0851 
     83 H83        21.5814  -27.9597  -48.1607 H         1 UNK         0.0851 
     84 H84        19.3589  -28.8085  -46.3993 H         1 UNK         0.2976 
     85 H85        22.1724  -26.9227  -40.3627 H         1 UNK         0.3116 
     86 H86        23.4287  -24.4216  -40.2580 H         1 UNK         0.0646 
     87 H87        25.1146  -26.6883  -41.5131 H         1 UNK         0.0847 
     88 H88        25.7493  -25.1372  -40.9772 H         1 UNK         0.0847 
     89 H89        24.6558  -25.2041  -42.3362 H         1 UNK         0.0847 
     90 H90        25.5815  -24.9222  -38.7796 H         1 UNK         0.3040 
     91 H91        24.7665  -26.3004  -36.4102 H         1 UNK         0.1015 
     92 H92        26.3999  -24.4246  -36.3835 H         1 UNK         0.0786 
     93 H93        27.5525  -25.3795  -37.3180 H         1 UNK         0.0786 
     94 H94        27.1203  -25.8643  -35.6845 H         1 UNK         0.0786 
     95 H95        26.4962  -27.3213  -39.2643 H         1 UNK         0.3172 
     96 H96        26.3448  -30.1666  -38.3951 H         1 UNK         0.0595 
     97 H97        28.5773  -28.8737  -40.0728 H         1 UNK         0.0839 
     98 H98        28.3626  -30.6001  -39.8143 H         1 UNK         0.0839 
     99 H99        28.7620  -29.5557  -38.4589 H         1 UNK         0.0839 
    100 H100       24.1769  -29.7607  -39.2109 H         1 UNK         0.2998 
    101 H101       23.5217  -28.7959  -41.7655 H         1 UNK         0.0822 
    102 H102       21.8682  -28.9803  -39.9178 H         1 UNK         0.0787 
    103 H103       21.2993  -29.9340  -41.2807 H         1 UNK         0.0787 
    104 H104       22.0305  -30.7320  -39.9031 H         1 UNK         0.0787 
    105 H105       23.0864  -29.7143  -43.7330 H         1 UNK         0.3055 
    106 H106       23.9081  -32.5529  -44.2309 H         1 UNK         0.1106 
    107 H107       23.9653  -31.7799  -46.6267 H         1 UNK         0.0828 
    108 H108       23.6476  -30.1342  -46.0913 H         1 UNK         0.0828 
    109 H109       25.1326  -30.9439  -45.6144 H         1 UNK         0.0828 
    110 H110       21.9137  -32.9830  -42.9789 H         1 UNK         0.2931 
    111 H111       19.3384  -32.2648  -43.6942 H         1 UNK         0.0412 
    112 H112       17.6834  -33.1220  -45.0506 H         1 UNK         0.3472 
    113 H113       17.9903  -34.3899  -46.2060 H         1 UNK         0.3472 
    114 H114       18.6193  -34.2372  -42.3277 H         1 UNK         0.0970 
    115 H115       20.2304  -34.8869  -42.3831 H         1 UNK         0.0970 
    116 H116       17.8414  -33.4803  -40.2601 H         1 UNK         0.0612 
    117 H117       18.6656  -32.5220  -39.0647 H         1 UNK         0.0612 
@<TRIPOS>BOND
     1    1    2 1    
     2    1   62 1    
     3    1   63 1    
     4    1   64 1    
     5    2    3 2    
     6    2    4 am   BACKBONE|DICT|INTERRES
     7    4    5 1    
     8    4   65 1    
     9    5    6 1    
    10    5   25 1    
    11    5   66 1    
    12    6    7 1    
    13    6   67 1    
    14    6   68 1    
    15    7    8 1    
    16    8    9 1    
    17    8   69 1    
    18    8   70 1    
    19    9   10 ar   
    20    9   14 ar   
    21   10   11 ar   
    22   10   71 1    
    23   11   12 ar   
    24   11   61 1    
    25   12   13 ar   
    26   12   72 1    
    27   13   14 ar   
    28   13   15 1    
    29   14   73 1    
    30   15   16 1    
    31   15   74 1    
    32   15   75 1    
    33   16   17 1    
    34   17   18 1    
    35   17   76 1    
    36   17   77 1    
    37   18   19 1    
    38   18   27 1    
    39   18   78 1    
    40   19   20 am   BACKBONE|DICT|INTERRES
    41   19   79 1    
    42   20   21 2    
    43   20   22 1    
    44   22   23 1    
    45   22   24 1    
    46   22   80 1    
    47   23   81 1    
    48   23   82 1    
    49   23   83 1    
    50   24   25 am   BACKBONE|DICT|INTERRES
    51   24   84 1    
    52   25   26 2    
    53   27   28 2    
    54   27   29 am   BACKBONE|DICT|INTERRES
    55   29   30 1    
    56   29   85 1    
    57   30   31 1    
    58   30   32 1    
    59   30   86 1    
    60   31   87 1    
    61   31   88 1    
    62   31   89 1    
    63   32   33 2    
    64   32   34 am   BACKBONE|DICT|INTERRES
    65   34   35 1    
    66   34   90 1    
    67   35   36 1    
    68   35   37 1    
    69   35   91 1    
    70   36   92 1    
    71   36   93 1    
    72   36   94 1    
    73   37   38 2    
    74   37   39 am   BACKBONE|DICT|INTERRES
    75   39   40 1    
    76   39   95 1    
    77   40   41 1    
    78   40   42 1    
    79   40   96 1    
    80   41   97 1    
    81   41   98 1    
    82   41   99 1    
    83   42   43 2    
    84   42   44 am   BACKBONE|DICT|INTERRES
    85   44   45 1    
    86   44  100 1    
    87   45   46 1    
    88   45   47 1    
    89   45  101 1    
    90   46  102 1    
    91   46  103 1    
    92   46  104 1    
    93   47   48 2    
    94   47   49 am   BACKBONE|DICT|INTERRES
    95   49   50 1    
    96   49  105 1    
    97   50   51 1    
    98   50   52 1    
    99   50  106 1    
   100   51  107 1    
   101   51  108 1    
   102   51  109 1    
   103   52   53 2    
   104   52   54 am   BACKBONE|DICT|INTERRES
   105   54   55 1    
   106   54  110 1    
   107   55   56 1    
   108   55   59 1    
   109   55  111 1    
   110   56   57 am   BACKBONE|DICT|INTERRES
   111   56   58 2    
   112   57  112 1    
   113   57  113 1    
   114   59   60 1    
   115   59  114 1    
   116   59  115 1    
   117   60   61 1    
   118   61  116 1    
   119   61  117 1    
@<TRIPOS>SUBSTRUCTURE
     1 UNK         1 GROUP             0       ****    0 ROOT    
