@<TRIPOS>MOLECULE
3R8
117   119    1
SMALL
USER_CHARGES


@<TRIPOS>ATOM
      1 CA         16.0189  -23.0678  -47.9928 C.3       0 UNK        -0.2013 
      2 C          17.0637  -23.9962  -47.3917 C.2       0 UNK         0.4866 
      3 O          18.2066  -24.0110  -47.8508 O.2       0 UNK        -0.5176 
      4 N          16.6792  -24.7781  -46.3757 N.am      1 UNK        -0.4884 
      5 CA         17.5623  -25.6956  -45.6481 C.3       1 UNK         0.0853 
      6 C6         16.7632  -26.7125  -44.7967 C.3       10 UNK        -0.0849 
      7 S7         15.7062  -27.8228  -45.7862 S.3       10 UNK        -0.2776 
      8 C8         16.8718  -29.1390  -46.2975 C.3       10 UNK         0.0316 
      9 C9         17.6367  -29.8187  -45.1601 C.ar      10 UNK        -0.0863 
     10 C10        18.9454  -30.2584  -45.3890 C.ar      10 UNK        -0.1009 
     11 C11        19.6766  -30.8813  -44.3744 C.ar      10 UNK        -0.0712 
     12 C12        19.0969  -31.0496  -43.1147 C.ar      10 UNK        -0.0894 
     13 C13        17.7899  -30.6245  -42.8689 C.ar      10 UNK        -0.0745 
     14 C14        17.0589  -30.0274  -43.9005 C.ar      10 UNK        -0.0972 
     15 C15        17.1627  -30.8155  -41.4923 C.3       10 UNK         0.0209 
     16 S16        18.1865  -30.1417  -40.1387 S.3       10 UNK        -0.2568 
     17 C17        18.3441  -28.3875  -40.6161 C.3       10 UNK        -0.0983 
     18 CA         19.7977  -28.0242  -41.0149 C.3       3 UNK         0.0876 
     19 N          19.8315  -26.8654  -41.9090 N.am      3 UNK        -0.4424 
     20 C          20.9228  -26.3629  -42.5032 C.2       2 UNK         0.4918 
     21 O          22.0600  -26.8189  -42.3632 O.2       2 UNK        -0.4875 
     22 CA         20.6690  -25.1784  -43.4482 C.3       2 UNK         0.0481 
     23 CB         21.9370  -24.6852  -44.1673 C.3       2 UNK        -0.1831 
     24 N          19.6759  -25.5926  -44.4377 N.am      2 UNK        -0.4498 
     25 C          18.5494  -24.9366  -44.7371 C.2       1 UNK         0.5027 
     26 O          18.2484  -23.8328  -44.2746 O.2       1 UNK        -0.4969 
     27 C          20.6844  -27.7913  -39.7757 C.2       3 UNK         0.5005 
     28 O          20.5315  -26.7668  -39.1063 O.2       3 UNK        -0.5279 
     29 N          21.6256  -28.7128  -39.5346 N.am      4 UNK        -0.4463 
     30 CA         22.6748  -28.7248  -38.5056 C.3       4 UNK         0.0283 
     31 CB         22.0886  -28.6346  -37.0836 C.3       4 UNK        -0.1875 
     32 C          23.7871  -27.6816  -38.7238 C.2       4 UNK         0.4949 
     33 O          24.9341  -27.9563  -38.3721 O.2       4 UNK        -0.5039 
     34 N          23.4487  -26.5234  -39.3049 N.am      5 UNK        -0.4663 
     35 CA         24.3728  -25.4475  -39.6635 C.3       5 UNK         0.0242 
     36 CB         23.5739  -24.1986  -40.0716 C.3       5 UNK        -0.1982 
     37 C          25.3562  -25.8612  -40.7698 C.2       5 UNK         0.5017 
     38 O          26.5606  -25.6608  -40.6075 O.2       5 UNK        -0.5012 
     39 N          24.8297  -26.4400  -41.8578 N.am      6 UNK        -0.4439 
     40 CA         25.6224  -26.9985  -42.9535 C.3       6 UNK         0.0297 
     41 CB         24.9181  -26.7515  -44.2970 C.3       6 UNK        -0.2006 
     42 C          25.8679  -28.4970  -42.7402 C.2       6 UNK         0.4892 
     43 O          27.0104  -28.9419  -42.8567 O.2       6 UNK        -0.5089 
     44 N          24.8012  -29.2451  -42.4314 N.am      7 UNK        -0.4243 
     45 CA         24.8208  -30.6897  -42.2200 C.3       7 UNK         0.0196 
     46 CB         24.9518  -31.4246  -43.5698 C.3       7 UNK        -0.2007 
     47 C          23.5355  -31.1138  -41.5069 C.2       7 UNK         0.5020 
     48 O          22.5382  -30.3896  -41.5492 O.2       7 UNK        -0.5147 
     49 N          23.5653  -32.3025  -40.9011 N.am      8 UNK        -0.4734 
     50 CA         22.4086  -32.9625  -40.3004 C.3       8 UNK         0.0238 
     51 CB         22.7620  -33.3875  -38.8627 C.3       8 UNK        -0.1912 
     52 C          22.0255  -34.1508  -41.1947 C.2       8 UNK         0.5038 
     53 O          22.3768  -35.2910  -40.8856 O.2       8 UNK        -0.5046 
     54 N          21.3662  -33.8434  -42.3195 N.am      9 UNK        -0.4200 
     55 CA         20.8555  -34.7996  -43.3152 C.3       9 UNK         0.0839 
     56 C          19.9100  -35.8693  -42.6993 C.2       9 UNK         0.5513 
     57 N          20.0105  -37.1153  -43.1411 N.am      9 UNK        -0.7519 
     58 O          19.0586  -35.5665  -41.8658 O.2       9 UNK        -0.4960 
     59 C59        20.1287  -34.0743  -44.4796 C.3       10 UNK        -0.0876 
     60 S60        21.1959  -32.9692  -45.4723 S.3       10 UNK        -0.2414 
     61 C61        21.1001  -31.3555  -44.6270 C.3       10 UNK         0.0169 
     62 H62        16.3398  -22.0308  -47.8973 H         1 UNK         0.0903 
     63 H63        15.8860  -23.2876  -49.0517 H         1 UNK         0.0903 
     64 H64        15.0513  -23.1698  -47.5015 H         1 UNK         0.0903 
     65 H65        15.7309  -24.7211  -46.0323 H         1 UNK         0.3096 
     66 H66        18.1501  -26.2459  -46.3865 H         1 UNK         0.1121 
     67 H67        16.1191  -26.1866  -44.0890 H         1 UNK         0.0849 
     68 H68        17.4313  -27.3173  -44.1826 H         1 UNK         0.0849 
     69 H69        16.3138  -29.9028  -46.8406 H         1 UNK         0.0865 
     70 H70        17.5724  -28.7079  -47.0142 H         1 UNK         0.0865 
     71 H71        19.3996  -30.1216  -46.3612 H         1 UNK         0.1346 
     72 H72        19.6597  -31.5103  -42.3161 H         1 UNK         0.1412 
     73 H73        16.0425  -29.7080  -43.7161 H         1 UNK         0.1426 
     74 H74        17.0102  -31.8818  -41.3205 H         1 UNK         0.0716 
     75 H75        16.1763  -30.3514  -41.4467 H         1 UNK         0.0716 
     76 H76        17.9830  -27.7606  -39.7982 H         1 UNK         0.0695 
     77 H77        17.6648  -28.1965  -41.4482 H         1 UNK         0.0695 
     78 H78        20.2171  -28.8515  -41.5919 H         1 UNK         0.0983 
     79 H79        18.9514  -26.3964  -42.0585 H         1 UNK         0.3095 
     80 H80        20.2871  -24.3627  -42.8309 H         1 UNK         0.0454 
     81 H81        22.3338  -25.4423  -44.8429 H         1 UNK         0.0851 
     82 H82        22.7229  -24.4283  -43.4562 H         1 UNK         0.0851 
     83 H83        21.7303  -23.7920  -44.7567 H         1 UNK         0.0851 
     84 H84        19.8277  -26.5077  -44.8409 H         1 UNK         0.2976 
     85 H85        21.7387  -29.4446  -40.2361 H         1 UNK         0.3116 
     86 H86        23.1511  -29.7023  -38.5975 H         1 UNK         0.0646 
     87 H87        21.6312  -27.6643  -36.8890 H         1 UNK         0.0847 
     88 H88        22.8683  -28.7776  -36.3345 H         1 UNK         0.0847 
     89 H89        21.3334  -29.4025  -36.9164 H         1 UNK         0.0847 
     90 H90        22.4648  -26.3788  -39.5054 H         1 UNK         0.3040 
     91 H91        24.9600  -25.2019  -38.7757 H         1 UNK         0.1015 
     92 H92        22.9236  -24.3920  -40.9250 H         1 UNK         0.0786 
     93 H93        24.2413  -23.3810  -40.3475 H         1 UNK         0.0786 
     94 H94        22.9499  -23.8436  -39.2512 H         1 UNK         0.0786 
     95 H95        23.8202  -26.5656  -41.9107 H         1 UNK         0.3172 
     96 H96        26.5941  -26.5019  -42.9990 H         1 UNK         0.0595 
     97 H97        25.5016  -27.1613  -45.1225 H         1 UNK         0.0839 
     98 H98        24.7975  -25.6853  -44.4871 H         1 UNK         0.0839 
     99 H99        23.9330  -27.2175  -44.3341 H         1 UNK         0.0839 
    100 H100       23.8894  -28.8163  -42.3240 H         1 UNK         0.2998 
    101 H101       25.6679  -30.9407  -41.5778 H         1 UNK         0.0822 
    102 H102       24.9138  -32.5070  -43.4399 H         1 UNK         0.0787 
    103 H103       24.1494  -31.1506  -44.2556 H         1 UNK         0.0787 
    104 H104       25.8984  -31.1964  -44.0594 H         1 UNK         0.0787 
    105 H105       24.4117  -32.8539  -40.9501 H         1 UNK         0.3055 
    106 H106       21.5487  -32.2903  -40.2462 H         1 UNK         0.1106 
    107 H107       21.9284  -33.9145  -38.3967 H         1 UNK         0.0828 
    108 H108       23.6265  -34.0519  -38.8330 H         1 UNK         0.0828 
    109 H109       22.9857  -32.5211  -38.2402 H         1 UNK         0.0828 
    110 H110       21.1705  -32.8743  -42.5097 H         1 UNK         0.2931 
    111 H111       21.7265  -35.3142  -43.7260 H         1 UNK         0.0412 
    112 H112       20.6990  -37.3697  -43.8329 H         1 UNK         0.3472 
    113 H113       19.3941  -37.8199  -42.7663 H         1 UNK         0.3472 
    114 H114       19.2493  -33.5402  -44.1207 H         1 UNK         0.0970 
    115 H115       19.7373  -34.8149  -45.1801 H         1 UNK         0.0970 
    116 H116       21.6286  -30.6143  -45.2282 H         1 UNK         0.0612 
    117 H117       21.6483  -31.4211  -43.6917 H         1 UNK         0.0612 
@<TRIPOS>BOND
     1    1    2 1    
     2    1   62 1    
     3    1   63 1    
     4    1   64 1    
     5    2    3 2    
     6    2    4 am   BACKBONE|DICT|INTERRES
     7    4    5 1    
     8    4   65 1    
     9    5    6 1    
    10    5   25 1    
    11    5   66 1    
    12    6    7 1    
    13    6   67 1    
    14    6   68 1    
    15    7    8 1    
    16    8    9 1    
    17    8   69 1    
    18    8   70 1    
    19    9   10 ar   
    20    9   14 ar   
    21   10   11 ar   
    22   10   71 1    
    23   11   12 ar   
    24   11   61 1    
    25   12   13 ar   
    26   12   72 1    
    27   13   14 ar   
    28   13   15 1    
    29   14   73 1    
    30   15   16 1    
    31   15   74 1    
    32   15   75 1    
    33   16   17 1    
    34   17   18 1    
    35   17   76 1    
    36   17   77 1    
    37   18   19 1    
    38   18   27 1    
    39   18   78 1    
    40   19   20 am   BACKBONE|DICT|INTERRES
    41   19   79 1    
    42   20   21 2    
    43   20   22 1    
    44   22   23 1    
    45   22   24 1    
    46   22   80 1    
    47   23   81 1    
    48   23   82 1    
    49   23   83 1    
    50   24   25 am   BACKBONE|DICT|INTERRES
    51   24   84 1    
    52   25   26 2    
    53   27   28 2    
    54   27   29 am   BACKBONE|DICT|INTERRES
    55   29   30 1    
    56   29   85 1    
    57   30   31 1    
    58   30   32 1    
    59   30   86 1    
    60   31   87 1    
    61   31   88 1    
    62   31   89 1    
    63   32   33 2    
    64   32   34 am   BACKBONE|DICT|INTERRES
    65   34   35 1    
    66   34   90 1    
    67   35   36 1    
    68   35   37 1    
    69   35   91 1    
    70   36   92 1    
    71   36   93 1    
    72   36   94 1    
    73   37   38 2    
    74   37   39 am   BACKBONE|DICT|INTERRES
    75   39   40 1    
    76   39   95 1    
    77   40   41 1    
    78   40   42 1    
    79   40   96 1    
    80   41   97 1    
    81   41   98 1    
    82   41   99 1    
    83   42   43 2    
    84   42   44 am   BACKBONE|DICT|INTERRES
    85   44   45 1    
    86   44  100 1    
    87   45   46 1    
    88   45   47 1    
    89   45  101 1    
    90   46  102 1    
    91   46  103 1    
    92   46  104 1    
    93   47   48 2    
    94   47   49 am   BACKBONE|DICT|INTERRES
    95   49   50 1    
    96   49  105 1    
    97   50   51 1    
    98   50   52 1    
    99   50  106 1    
   100   51  107 1    
   101   51  108 1    
   102   51  109 1    
   103   52   53 2    
   104   52   54 am   BACKBONE|DICT|INTERRES
   105   54   55 1    
   106   54  110 1    
   107   55   56 1    
   108   55   59 1    
   109   55  111 1    
   110   56   57 am   BACKBONE|DICT|INTERRES
   111   56   58 2    
   112   57  112 1    
   113   57  113 1    
   114   59   60 1    
   115   59  114 1    
   116   59  115 1    
   117   60   61 1    
   118   61  116 1    
   119   61  117 1    
@<TRIPOS>SUBSTRUCTURE
     1 UNK         1 GROUP             0       ****    0 ROOT    
