@<TRIPOS>MOLECULE
3R8
117   119    1
SMALL
USER_CHARGES


@<TRIPOS>ATOM
      1 CA         17.4657  -23.3278  -48.9680 C.3       0 UNK        -0.2013 
      2 C          18.1576  -24.2346  -47.9611 C.2       0 UNK         0.4866 
      3 O          19.3747  -24.4103  -48.0303 O.2       0 UNK        -0.5176 
      4 N          17.3910  -24.8198  -47.0331 N.am      1 UNK        -0.4884 
      5 CA         17.8939  -25.6817  -45.9586 C.3       1 UNK         0.0853 
      6 C6         16.7600  -26.5008  -45.2985 C.3       10 UNK        -0.0849 
      7 S7         15.9276  -27.6705  -46.4288 S.3       10 UNK        -0.2776 
      8 C8         17.1432  -29.0312  -46.6114 C.3       10 UNK         0.0316 
      9 C9         17.5981  -29.7311  -45.3265 C.ar      10 UNK        -0.0863 
     10 C10        18.7513  -30.5220  -45.3707 C.ar      10 UNK        -0.1009 
     11 C11        19.2258  -31.1638  -44.2224 C.ar      10 UNK        -0.0712 
     12 C12        18.5611  -30.9849  -43.0060 C.ar      10 UNK        -0.0894 
     13 C13        17.4009  -30.2096  -42.9477 C.ar      10 UNK        -0.0745 
     14 C14        16.9060  -29.6208  -44.1143 C.ar      10 UNK        -0.0972 
     15 C15        16.6683  -29.9938  -41.6341 C.3       10 UNK         0.0209 
     16 S16        16.8236  -28.2640  -41.0838 S.3       10 UNK        -0.2568 
     17 C17        18.2596  -28.3238  -39.9602 C.3       10 UNK        -0.0983 
     18 CA         19.6292  -28.0002  -40.6162 C.3       3 UNK         0.0876 
     19 N          19.5871  -26.7969  -41.4562 N.am      3 UNK        -0.4424 
     20 C          20.6202  -26.2421  -42.1069 C.2       2 UNK         0.4918 
     21 O          21.7773  -26.6688  -42.0744 O.2       2 UNK        -0.4875 
     22 CA         20.2682  -25.0475  -43.0018 C.3       2 UNK         0.0481 
     23 CB         21.4972  -24.2519  -43.4813 C.3       2 UNK        -0.1831 
     24 N          19.5239  -25.5611  -44.1470 N.am      2 UNK        -0.4498 
     25 C          18.6370  -24.8730  -44.8743 C.2       1 UNK         0.5027 
     26 O          18.3599  -23.6859  -44.6809 O.2       1 UNK        -0.4969 
     27 C          20.6998  -27.8808  -39.5129 C.2       3 UNK         0.5005 
     28 O          20.6797  -26.9056  -38.7579 O.2       3 UNK        -0.5279 
     29 N          21.6244  -28.8477  -39.4602 N.am      4 UNK        -0.4463 
     30 CA         22.7782  -28.9733  -38.5557 C.3       4 UNK         0.0283 
     31 CB         22.3509  -28.9949  -37.0755 C.3       4 UNK        -0.1875 
     32 C          23.8960  -27.9425  -38.8027 C.2       4 UNK         0.4949 
     33 O          25.0665  -28.2897  -38.6488 O.2       4 UNK        -0.5039 
     34 N          23.5320  -26.7134  -39.1898 N.am      5 UNK        -0.4663 
     35 CA         24.4423  -25.6205  -39.5325 C.3       5 UNK         0.0242 
     36 CB         23.6426  -24.3176  -39.6909 C.3       5 UNK        -0.1982 
     37 C          25.2779  -25.9188  -40.7875 C.2       5 UNK         0.5017 
     38 O          26.4980  -25.7540  -40.7471 O.2       5 UNK        -0.5012 
     39 N          24.6165  -26.3726  -41.8617 N.am      6 UNK        -0.4439 
     40 CA         25.2749  -26.8780  -43.0677 C.3       6 UNK         0.0297 
     41 CB         24.4194  -26.5852  -44.3105 C.3       6 UNK        -0.2006 
     42 C          25.5554  -28.3798  -42.9325 C.2       6 UNK         0.4892 
     43 O          26.6943  -28.8036  -43.1327 O.2       6 UNK        -0.5089 
     44 N          24.5198  -29.1495  -42.5777 N.am      7 UNK        -0.4243 
     45 CA         24.5731  -30.5897  -42.3506 C.3       7 UNK         0.0196 
     46 CB         24.6462  -31.3456  -43.6920 C.3       7 UNK        -0.2007 
     47 C          23.3191  -31.0054  -41.5816 C.2       7 UNK         0.5020 
     48 O          22.2735  -30.3678  -41.7288 O.2       7 UNK        -0.5147 
     49 N          23.4297  -32.0765  -40.7892 N.am      8 UNK        -0.4734 
     50 CA         22.2837  -32.7252  -40.1412 C.3       8 UNK         0.0238 
     51 CB         22.7543  -33.4467  -38.8681 C.3       8 UNK        -0.1912 
     52 C          21.5688  -33.7033  -41.0913 C.2       8 UNK         0.5038 
     53 O          20.3511  -33.8496  -40.9886 O.2       8 UNK        -0.5046 
     54 N          22.3491  -34.3214  -41.9929 N.am      9 UNK        -0.4200 
     55 CA         21.9673  -35.3046  -43.0202 C.3       9 UNK         0.0839 
     56 C          21.0739  -36.4813  -42.5167 C.2       9 UNK         0.5513 
     57 N          20.1991  -37.0361  -43.3453 N.am      9 UNK        -0.7519 
     58 O          21.2270  -36.9508  -41.3907 O.2       9 UNK        -0.4960 
     59 C59        21.5699  -34.6446  -44.3758 C.3       10 UNK        -0.0876 
     60 S60        19.9492  -33.8070  -44.4077 S.3       10 UNK        -0.2414 
     61 C61        20.4477  -32.0630  -44.2955 C.3       10 UNK         0.0169 
     62 H62        16.3901  -23.2771  -48.8000 H         1 UNK         0.0903 
     63 H63        17.8674  -22.3171  -48.8999 H         1 UNK         0.0903 
     64 H64        17.6335  -23.6940  -49.9805 H         1 UNK         0.0903 
     65 H65        16.3982  -24.6345  -47.0155 H         1 UNK         0.3096 
     66 H66        18.6143  -26.3746  -46.3988 H         1 UNK         0.1121 
     67 H67        15.9967  -25.8291  -44.9005 H         1 UNK         0.0849 
     68 H68        17.1369  -27.0456  -44.4336 H         1 UNK         0.0849 
     69 H69        16.7091  -29.7837  -47.2711 H         1 UNK         0.0865 
     70 H70        18.0153  -28.6386  -47.1362 H         1 UNK         0.0865 
     71 H71        19.2792  -30.6475  -46.3065 H         1 UNK         0.1346 
     72 H72        18.9398  -31.4667  -42.1143 H         1 UNK         0.1412 
     73 H73        15.9941  -29.0437  -44.0546 H         1 UNK         0.1426 
     74 H74        17.0242  -30.6779  -40.8625 H         1 UNK         0.0716 
     75 H75        15.6110  -30.2214  -41.7773 H         1 UNK         0.0716 
     76 H76        18.2947  -29.3006  -39.4745 H         1 UNK         0.0695 
     77 H77        18.0459  -27.6083  -39.1631 H         1 UNK         0.0695 
     78 H78        19.8956  -28.8288  -41.2763 H         1 UNK         0.0983 
     79 H79        18.6732  -26.3804  -41.5572 H         1 UNK         0.3095 
     80 H80        19.6309  -24.3805  -42.4172 H         1 UNK         0.0454 
     81 H81        22.1090  -24.8384  -44.1644 H         1 UNK         0.0851 
     82 H82        22.1282  -23.9504  -42.6457 H         1 UNK         0.0851 
     83 H83        21.1989  -23.3432  -44.0040 H         1 UNK         0.0851 
     84 H84        19.6742  -26.5408  -44.3497 H         1 UNK         0.2976 
     85 H85        21.6277  -29.5200  -40.2260 H         1 UNK         0.3116 
     86 H86        23.2116  -29.9500  -38.7730 H         1 UNK         0.0646 
     87 H87        21.9439  -28.0370  -36.7508 H         1 UNK         0.0847 
     88 H88        23.2026  -29.2158  -36.4310 H         1 UNK         0.0847 
     89 H89        21.5980  -29.7609  -36.8907 H         1 UNK         0.0847 
     90 H90        22.5355  -26.5237  -39.2394 H         1 UNK         0.3040 
     91 H91        25.1378  -25.4934  -38.6998 H         1 UNK         0.1015 
     92 H92        22.8641  -24.4109  -40.4476 H         1 UNK         0.0786 
     93 H93        24.2915  -23.4915  -39.9853 H         1 UNK         0.0786 
     94 H94        23.1623  -24.0341  -38.7542 H         1 UNK         0.0786 
     95 H95        23.6044  -26.4747  -41.8111 H         1 UNK         0.3172 
     96 H96        26.2318  -26.3698  -43.2053 H         1 UNK         0.0595 
     97 H97        23.4172  -27.0073  -44.2304 H         1 UNK         0.0839 
     98 H98        24.8784  -27.0055  -45.2064 H         1 UNK         0.0839 
     99 H99        24.3255  -25.5121  -44.4738 H         1 UNK         0.0839 
    100 H100       23.6093  -28.7341  -42.4188 H         1 UNK         0.2998 
    101 H101       25.4527  -30.8192  -41.7452 H         1 UNK         0.0822 
    102 H102       25.5481  -31.0901  -44.2481 H         1 UNK         0.0787 
    103 H103       24.6616  -32.4249  -43.5365 H         1 UNK         0.0787 
    104 H104       23.7879  -31.1193  -44.3263 H         1 UNK         0.0787 
    105 H105       24.3310  -32.5219  -40.6847 H         1 UNK         0.3055 
    106 H106       21.5552  -31.9664  -39.8456 H         1 UNK         0.1106 
    107 H107       21.9153  -33.9240  -38.3596 H         1 UNK         0.0828 
    108 H108       23.4865  -34.2246  -39.0872 H         1 UNK         0.0828 
    109 H109       23.2048  -32.7494  -38.1614 H         1 UNK         0.0828 
    110 H110       23.3371  -34.1287  -41.9458 H         1 UNK         0.2931 
    111 H111       22.9121  -35.8085  -43.2281 H         1 UNK         0.0412 
    112 H112       19.6444  -37.8151  -43.0262 H         1 UNK         0.3472 
    113 H113       20.0466  -36.6522  -44.2648 H         1 UNK         0.3472 
    114 H114       21.5702  -35.3970  -45.1660 H         1 UNK         0.0970 
    115 H115       22.3427  -33.9340  -44.6729 H         1 UNK         0.0970 
    116 H116       21.0678  -31.8023  -45.1545 H         1 UNK         0.0612 
    117 H117       21.0644  -31.9205  -43.4104 H         1 UNK         0.0612 
@<TRIPOS>BOND
     1    1    2 1    
     2    1   62 1    
     3    1   63 1    
     4    1   64 1    
     5    2    3 2    
     6    2    4 am   BACKBONE|DICT|INTERRES
     7    4    5 1    
     8    4   65 1    
     9    5    6 1    
    10    5   25 1    
    11    5   66 1    
    12    6    7 1    
    13    6   67 1    
    14    6   68 1    
    15    7    8 1    
    16    8    9 1    
    17    8   69 1    
    18    8   70 1    
    19    9   10 ar   
    20    9   14 ar   
    21   10   11 ar   
    22   10   71 1    
    23   11   12 ar   
    24   11   61 1    
    25   12   13 ar   
    26   12   72 1    
    27   13   14 ar   
    28   13   15 1    
    29   14   73 1    
    30   15   16 1    
    31   15   74 1    
    32   15   75 1    
    33   16   17 1    
    34   17   18 1    
    35   17   76 1    
    36   17   77 1    
    37   18   19 1    
    38   18   27 1    
    39   18   78 1    
    40   19   20 am   BACKBONE|DICT|INTERRES
    41   19   79 1    
    42   20   21 2    
    43   20   22 1    
    44   22   23 1    
    45   22   24 1    
    46   22   80 1    
    47   23   81 1    
    48   23   82 1    
    49   23   83 1    
    50   24   25 am   BACKBONE|DICT|INTERRES
    51   24   84 1    
    52   25   26 2    
    53   27   28 2    
    54   27   29 am   BACKBONE|DICT|INTERRES
    55   29   30 1    
    56   29   85 1    
    57   30   31 1    
    58   30   32 1    
    59   30   86 1    
    60   31   87 1    
    61   31   88 1    
    62   31   89 1    
    63   32   33 2    
    64   32   34 am   BACKBONE|DICT|INTERRES
    65   34   35 1    
    66   34   90 1    
    67   35   36 1    
    68   35   37 1    
    69   35   91 1    
    70   36   92 1    
    71   36   93 1    
    72   36   94 1    
    73   37   38 2    
    74   37   39 am   BACKBONE|DICT|INTERRES
    75   39   40 1    
    76   39   95 1    
    77   40   41 1    
    78   40   42 1    
    79   40   96 1    
    80   41   97 1    
    81   41   98 1    
    82   41   99 1    
    83   42   43 2    
    84   42   44 am   BACKBONE|DICT|INTERRES
    85   44   45 1    
    86   44  100 1    
    87   45   46 1    
    88   45   47 1    
    89   45  101 1    
    90   46  102 1    
    91   46  103 1    
    92   46  104 1    
    93   47   48 2    
    94   47   49 am   BACKBONE|DICT|INTERRES
    95   49   50 1    
    96   49  105 1    
    97   50   51 1    
    98   50   52 1    
    99   50  106 1    
   100   51  107 1    
   101   51  108 1    
   102   51  109 1    
   103   52   53 2    
   104   52   54 am   BACKBONE|DICT|INTERRES
   105   54   55 1    
   106   54  110 1    
   107   55   56 1    
   108   55   59 1    
   109   55  111 1    
   110   56   57 am   BACKBONE|DICT|INTERRES
   111   56   58 2    
   112   57  112 1    
   113   57  113 1    
   114   59   60 1    
   115   59  114 1    
   116   59  115 1    
   117   60   61 1    
   118   61  116 1    
   119   61  117 1    
@<TRIPOS>SUBSTRUCTURE
     1 UNK         1 GROUP             0       ****    0 ROOT    
