@<TRIPOS>MOLECULE
3R8
117   119    1
SMALL
USER_CHARGES


@<TRIPOS>ATOM
      1 CA         16.8631  -22.1172  -46.2154 C.3       0 UNK        -0.2013 
      2 C          18.0508  -23.0598  -46.3397 C.2       0 UNK         0.4866 
      3 O          19.1820  -22.6005  -46.4974 O.2       0 UNK        -0.5176 
      4 N          17.8023  -24.3752  -46.2735 N.am      1 UNK        -0.4884 
      5 CA         18.8278  -25.4249  -46.3575 C.3       1 UNK         0.0853 
      6 C6         18.1867  -26.8079  -46.6369 C.3       10 UNK        -0.0849 
      7 S7         19.3247  -27.9643  -47.4722 S.3       10 UNK        -0.2776 
      8 C8         18.2212  -29.3742  -47.8074 C.3       10 UNK         0.0316 
      9 C9         18.0470  -30.2662  -46.5856 C.ar      10 UNK        -0.0863 
     10 C10        18.8348  -31.4113  -46.4305 C.ar      10 UNK        -0.1009 
     11 C11        18.6530  -32.2561  -45.3307 C.ar      10 UNK        -0.0712 
     12 C12        17.6954  -31.9312  -44.3646 C.ar      10 UNK        -0.0894 
     13 C13        16.9187  -30.7774  -44.4970 C.ar      10 UNK        -0.0745 
     14 C14        17.0816  -29.9639  -45.6214 C.ar      10 UNK        -0.0972 
     15 C15        15.8867  -30.4134  -43.4412 C.3       10 UNK         0.0209 
     16 S16        16.3544  -28.9066  -42.5311 S.3       10 UNK        -0.2568 
     17 C17        17.6767  -29.4999  -41.4170 C.3       10 UNK        -0.0983 
     18 CA         19.0837  -28.9324  -41.7475 C.3       3 UNK         0.0876 
     19 N          19.0581  -27.4822  -41.9776 N.am      3 UNK        -0.4424 
     20 C          20.1007  -26.6814  -42.2427 C.2       2 UNK         0.4918 
     21 O          21.2778  -27.0462  -42.2674 O.2       2 UNK        -0.4875 
     22 CA         19.7189  -25.2303  -42.5899 C.3       2 UNK         0.0481 
     23 CB         20.8742  -24.2250  -42.4151 C.3       2 UNK        -0.1831 
     24 N          19.1388  -25.1473  -43.9354 N.am      2 UNK        -0.4498 
     25 C          19.7247  -25.4762  -45.1009 C.2       1 UNK         0.5027 
     26 O          20.9055  -25.8047  -45.2188 O.2       1 UNK        -0.4969 
     27 C          20.0854  -29.3535  -40.6518 C.2       3 UNK         0.5005 
     28 O          20.8192  -30.3263  -40.8305 O.2       3 UNK        -0.5279 
     29 N          20.0997  -28.6104  -39.5385 N.am      4 UNK        -0.4463 
     30 CA         21.0242  -28.8069  -38.4256 C.3       4 UNK         0.0283 
     31 CB         20.3587  -28.3256  -37.1266 C.3       4 UNK        -0.1875 
     32 C          22.3292  -28.0382  -38.6706 C.2       4 UNK         0.4949 
     33 O          22.2893  -26.9055  -39.1556 O.2       4 UNK        -0.5039 
     34 N          23.4516  -28.6570  -38.2823 N.am      5 UNK        -0.4663 
     35 CA         24.8316  -28.1471  -38.2680 C.3       5 UNK         0.0242 
     36 CB         24.9713  -26.9443  -37.3136 C.3       5 UNK        -0.1982 
     37 C          25.4438  -27.8295  -39.6448 C.2       5 UNK         0.5017 
     38 O          26.5425  -28.3075  -39.9265 O.2       5 UNK        -0.5012 
     39 N          24.7522  -27.0254  -40.4617 N.am      6 UNK        -0.4439 
     40 CA         25.2100  -26.5837  -41.7807 C.3       6 UNK         0.0297 
     41 CB         24.4409  -25.3294  -42.2146 C.3       6 UNK        -0.2006 
     42 C          25.1076  -27.7093  -42.8189 C.2       6 UNK         0.4892 
     43 O          26.1329  -28.1105  -43.3713 O.2       6 UNK        -0.5089 
     44 N          23.8897  -28.2297  -43.0359 N.am      7 UNK        -0.4243 
     45 CA         23.6673  -29.4453  -43.8281 C.3       7 UNK         0.0196 
     46 CB         22.1940  -29.5275  -44.2553 C.3       7 UNK        -0.2007 
     47 C          24.0784  -30.7146  -43.0591 C.2       7 UNK         0.5020 
     48 O          24.4450  -31.7067  -43.6885 O.2       7 UNK        -0.5147 
     49 N          24.0199  -30.6456  -41.7185 N.am      8 UNK        -0.4734 
     50 CA         24.3587  -31.6947  -40.7463 C.3       8 UNK         0.0238 
     51 CB         25.8634  -32.0327  -40.8026 C.3       8 UNK        -0.1912 
     52 C          23.4559  -32.9408  -40.8474 C.2       8 UNK         0.5038 
     53 O          23.8921  -34.0472  -40.5231 O.2       8 UNK        -0.5046 
     54 N          22.2096  -32.7289  -41.2790 N.am      9 UNK        -0.4200 
     55 CA         21.1470  -33.7360  -41.3542 C.3       9 UNK         0.0839 
     56 C          20.4082  -33.9094  -40.0004 C.2       9 UNK         0.5513 
     57 N          20.3023  -32.8686  -39.1819 N.am      9 UNK        -0.7519 
     58 O          19.9298  -34.9976  -39.6922 O.2       9 UNK        -0.4960 
     59 C59        20.1355  -33.3962  -42.4757 C.3       10 UNK        -0.0876 
     60 S60        20.9139  -33.3215  -44.1243 S.3       10 UNK        -0.2414 
     61 C61        19.4693  -33.5349  -45.2071 C.3       10 UNK         0.0169 
     62 H62        15.9247  -22.6561  -46.0860 H         1 UNK         0.0903 
     63 H63        16.9961  -21.4576  -45.3583 H         1 UNK         0.0903 
     64 H64        16.7788  -21.5005  -47.1097 H         1 UNK         0.0903 
     65 H65        16.8497  -24.6923  -46.1577 H         1 UNK         0.3096 
     66 H66        19.4745  -25.1685  -47.2004 H         1 UNK         0.1121 
     67 H67        17.8143  -27.2564  -45.7148 H         1 UNK         0.0849 
     68 H68        17.3194  -26.6914  -47.2890 H         1 UNK         0.0849 
     69 H69        17.2516  -29.0166  -48.1575 H         1 UNK         0.0865 
     70 H70        18.6398  -29.9538  -48.6316 H         1 UNK         0.0865 
     71 H71        19.5790  -31.6556  -47.1764 H         1 UNK         0.1346 
     72 H72        17.5495  -32.5806  -43.5131 H         1 UNK         0.1412 
     73 H73        16.4574  -29.0890  -45.7368 H         1 UNK         0.1426 
     74 H74        15.7296  -31.2334  -42.7387 H         1 UNK         0.0716 
     75 H75        14.9261  -30.2430  -43.9295 H         1 UNK         0.0716 
     76 H76        17.7004  -30.5913  -41.4315 H         1 UNK         0.0695 
     77 H77        17.3794  -29.2218  -40.4038 H         1 UNK         0.0695 
     78 H78        19.4085  -29.3890  -42.6836 H         1 UNK         0.0983 
     79 H79        18.1311  -27.0838  -42.0188 H         1 UNK         0.3095 
     80 H80        18.9340  -24.9352  -41.8916 H         1 UNK         0.0454 
     81 H81        21.3318  -24.3239  -41.4299 H         1 UNK         0.0851 
     82 H82        20.5173  -23.1993  -42.5054 H         1 UNK         0.0851 
     83 H83        21.6573  -24.3649  -43.1588 H         1 UNK         0.0851 
     84 H84        18.1668  -24.8748  -43.9751 H         1 UNK         0.2976 
     85 H85        19.5179  -27.7860  -39.5040 H         1 UNK         0.3116 
     86 H86        21.2452  -29.8716  -38.3218 H         1 UNK         0.0646 
     87 H87        19.4361  -28.8711  -36.9274 H         1 UNK         0.0847 
     88 H88        20.1189  -27.2620  -37.1639 H         1 UNK         0.0847 
     89 H89        21.0165  -28.4801  -36.2701 H         1 UNK         0.0847 
     90 H90        23.3499  -29.5857  -37.8959 H         1 UNK         0.3040 
     91 H91        25.4341  -28.9560  -37.8501 H         1 UNK         0.1015 
     92 H92        26.0114  -26.6233  -37.2414 H         1 UNK         0.0786 
     93 H93        24.6411  -27.1980  -36.3062 H         1 UNK         0.0786 
     94 H94        24.3908  -26.0842  -37.6488 H         1 UNK         0.0786 
     95 H95        23.8302  -26.7248  -40.1484 H         1 UNK         0.3172 
     96 H96        26.2633  -26.3061  -41.6988 H         1 UNK         0.0595 
     97 H97        24.7429  -25.0065  -43.2118 H         1 UNK         0.0839 
     98 H98        24.6201  -24.4977  -41.5332 H         1 UNK         0.0839 
     99 H99        23.3707  -25.5152  -42.2395 H         1 UNK         0.0839 
    100 H100       23.0727  -27.8046  -42.6037 H         1 UNK         0.2998 
    101 H101       24.2775  -29.3884  -44.7321 H         1 UNK         0.0822 
    102 H102       22.0269  -30.3725  -44.9246 H         1 UNK         0.0787 
    103 H103       21.8750  -28.6260  -44.7797 H         1 UNK         0.0787 
    104 H104       21.5420  -29.6648  -43.3954 H         1 UNK         0.0787 
    105 H105       23.6728  -29.7818  -41.3267 H         1 UNK         0.3055 
    106 H106       24.1589  -31.2704  -39.7617 H         1 UNK         0.1106 
    107 H107       26.4745  -31.1342  -40.7147 H         1 UNK         0.0828 
    108 H108       26.1472  -32.6970  -39.9856 H         1 UNK         0.0828 
    109 H109       26.1318  -32.5316  -41.7341 H         1 UNK         0.0828 
    110 H110       21.9116  -31.7723  -41.4433 H         1 UNK         0.2931 
    111 H111       21.5999  -34.6992  -41.5981 H         1 UNK         0.0412 
    112 H112       20.6394  -31.9632  -39.4809 H         1 UNK         0.3472 
    113 H113       19.8271  -32.9737  -38.2996 H         1 UNK         0.3472 
    114 H114       19.6565  -32.4359  -42.2763 H         1 UNK         0.0970 
    115 H115       19.3398  -34.1432  -42.5001 H         1 UNK         0.0970 
    116 H116       19.8210  -33.8475  -46.1914 H         1 UNK         0.0612 
    117 H117       18.8437  -34.3498  -44.8399 H         1 UNK         0.0612 
@<TRIPOS>BOND
     1    1    2 1    
     2    1   62 1    
     3    1   63 1    
     4    1   64 1    
     5    2    3 2    
     6    2    4 am   BACKBONE|DICT|INTERRES
     7    4    5 1    
     8    4   65 1    
     9    5    6 1    
    10    5   25 1    
    11    5   66 1    
    12    6    7 1    
    13    6   67 1    
    14    6   68 1    
    15    7    8 1    
    16    8    9 1    
    17    8   69 1    
    18    8   70 1    
    19    9   10 ar   
    20    9   14 ar   
    21   10   11 ar   
    22   10   71 1    
    23   11   12 ar   
    24   11   61 1    
    25   12   13 ar   
    26   12   72 1    
    27   13   14 ar   
    28   13   15 1    
    29   14   73 1    
    30   15   16 1    
    31   15   74 1    
    32   15   75 1    
    33   16   17 1    
    34   17   18 1    
    35   17   76 1    
    36   17   77 1    
    37   18   19 1    
    38   18   27 1    
    39   18   78 1    
    40   19   20 am   BACKBONE|DICT|INTERRES
    41   19   79 1    
    42   20   21 2    
    43   20   22 1    
    44   22   23 1    
    45   22   24 1    
    46   22   80 1    
    47   23   81 1    
    48   23   82 1    
    49   23   83 1    
    50   24   25 am   BACKBONE|DICT|INTERRES
    51   24   84 1    
    52   25   26 2    
    53   27   28 2    
    54   27   29 am   BACKBONE|DICT|INTERRES
    55   29   30 1    
    56   29   85 1    
    57   30   31 1    
    58   30   32 1    
    59   30   86 1    
    60   31   87 1    
    61   31   88 1    
    62   31   89 1    
    63   32   33 2    
    64   32   34 am   BACKBONE|DICT|INTERRES
    65   34   35 1    
    66   34   90 1    
    67   35   36 1    
    68   35   37 1    
    69   35   91 1    
    70   36   92 1    
    71   36   93 1    
    72   36   94 1    
    73   37   38 2    
    74   37   39 am   BACKBONE|DICT|INTERRES
    75   39   40 1    
    76   39   95 1    
    77   40   41 1    
    78   40   42 1    
    79   40   96 1    
    80   41   97 1    
    81   41   98 1    
    82   41   99 1    
    83   42   43 2    
    84   42   44 am   BACKBONE|DICT|INTERRES
    85   44   45 1    
    86   44  100 1    
    87   45   46 1    
    88   45   47 1    
    89   45  101 1    
    90   46  102 1    
    91   46  103 1    
    92   46  104 1    
    93   47   48 2    
    94   47   49 am   BACKBONE|DICT|INTERRES
    95   49   50 1    
    96   49  105 1    
    97   50   51 1    
    98   50   52 1    
    99   50  106 1    
   100   51  107 1    
   101   51  108 1    
   102   51  109 1    
   103   52   53 2    
   104   52   54 am   BACKBONE|DICT|INTERRES
   105   54   55 1    
   106   54  110 1    
   107   55   56 1    
   108   55   59 1    
   109   55  111 1    
   110   56   57 am   BACKBONE|DICT|INTERRES
   111   56   58 2    
   112   57  112 1    
   113   57  113 1    
   114   59   60 1    
   115   59  114 1    
   116   59  115 1    
   117   60   61 1    
   118   61  116 1    
   119   61  117 1    
@<TRIPOS>SUBSTRUCTURE
     1 UNK         1 GROUP             0       ****    0 ROOT    
