@<TRIPOS>MOLECULE
3R8
117   119    1
SMALL
USER_CHARGES


@<TRIPOS>ATOM
      1 CA         17.5766  -22.9730  -40.4690 C.3       0 UNK        -0.2013 
      2 C          17.6749  -23.3738  -41.9334 C.2       0 UNK         0.4866 
      3 O          17.9429  -22.5243  -42.7840 O.2       0 UNK        -0.5176 
      4 N          17.4526  -24.6600  -42.2337 N.am      1 UNK        -0.4884 
      5 CA         17.6018  -25.2422  -43.5725 C.3       1 UNK         0.0853 
      6 C6         16.8619  -26.5988  -43.6715 C.3       10 UNK        -0.0849 
      7 S7         16.3260  -26.9688  -45.3752 S.3       10 UNK        -0.2776 
      8 C8         15.6127  -28.6315  -45.1691 C.3       10 UNK         0.0316 
      9 C9         16.6789  -29.6562  -44.8135 C.ar      10 UNK        -0.0863 
     10 C10        16.7744  -30.1560  -43.5098 C.ar      10 UNK        -0.1009 
     11 C11        17.7722  -31.0762  -43.1747 C.ar      10 UNK        -0.0712 
     12 C12        18.6667  -31.4993  -44.1601 C.ar      10 UNK        -0.0894 
     13 C13        18.5800  -31.0130  -45.4677 C.ar      10 UNK        -0.0745 
     14 C14        17.5793  -30.0936  -45.7899 C.ar      10 UNK        -0.0972 
     15 C15        19.5635  -31.4878  -46.5299 C.3       10 UNK         0.0209 
     16 S16        20.8950  -30.2818  -46.8449 S.3       10 UNK        -0.2568 
     17 C17        21.7503  -30.2348  -45.2291 C.3       10 UNK        -0.0983 
     18 CA         22.1023  -28.8178  -44.6897 C.3       3 UNK         0.0876 
     19 N          21.2739  -27.7305  -45.2267 N.am      3 UNK        -0.4424 
     20 C          21.6905  -26.4595  -45.3028 C.2       2 UNK         0.4918 
     21 O          22.7995  -26.0776  -44.9278 O.2       2 UNK        -0.4875 
     22 CA         20.6998  -25.4335  -45.8793 C.3       2 UNK         0.0481 
     23 CB         20.5755  -25.5981  -47.4029 C.3       2 UNK        -0.1831 
     24 N          19.3644  -25.4556  -45.2717 N.am      2 UNK        -0.4498 
     25 C          19.0933  -25.3660  -43.9616 C.2       1 UNK         0.5027 
     26 O          19.9561  -25.3919  -43.0806 O.2       1 UNK        -0.4969 
     27 C          22.0971  -28.7969  -43.1476 C.2       3 UNK         0.5005 
     28 O          23.1269  -29.0759  -42.5322 O.2       3 UNK        -0.5279 
     29 N          20.9496  -28.4353  -42.5504 N.am      4 UNK        -0.4463 
     30 CA         20.7434  -28.3371  -41.1017 C.3       4 UNK         0.0283 
     31 CB         19.2687  -28.0253  -40.8032 C.3       4 UNK        -0.1875 
     32 C          21.6601  -27.2980  -40.4362 C.2       4 UNK         0.4949 
     33 O          22.1450  -27.5392  -39.3320 O.2       4 UNK        -0.5039 
     34 N          21.9418  -26.1965  -41.1453 N.am      5 UNK        -0.4663 
     35 CA         22.9197  -25.1723  -40.7652 C.3       5 UNK         0.0242 
     36 CB         22.8099  -23.9919  -41.7433 C.3       5 UNK        -0.1982 
     37 C          24.3719  -25.6881  -40.6984 C.2       5 UNK         0.5017 
     38 O          25.1818  -25.0970  -39.9839 O.2       5 UNK        -0.5012 
     39 N          24.6690  -26.7829  -41.4130 N.am      6 UNK        -0.4439 
     40 CA         25.9402  -27.5102  -41.3700 C.3       6 UNK         0.0297 
     41 CB         26.3400  -27.8928  -42.8067 C.3       6 UNK        -0.2006 
     42 C          25.8651  -28.7569  -40.4631 C.2       6 UNK         0.4892 
     43 O          26.8251  -29.5280  -40.4338 O.2       6 UNK        -0.5089 
     44 N          24.7419  -28.9363  -39.7480 N.am      7 UNK        -0.4243 
     45 CA         24.4084  -30.0475  -38.8498 C.3       7 UNK         0.0196 
     46 CB         25.3625  -30.0837  -37.6361 C.3       7 UNK        -0.2007 
     47 C          24.2810  -31.4120  -39.5573 C.2       7 UNK         0.5020 
     48 O          24.5020  -32.4443  -38.9213 O.2       7 UNK        -0.5147 
     49 N          23.9088  -31.4096  -40.8437 N.am      8 UNK        -0.4734 
     50 CA         23.6547  -32.6145  -41.6330 C.3       8 UNK         0.0238 
     51 CB         24.3329  -32.4595  -43.0035 C.3       8 UNK        -0.1912 
     52 C          22.1420  -32.8075  -41.7997 C.2       8 UNK         0.5038 
     53 O          21.4308  -31.8310  -42.0347 O.2       8 UNK        -0.5046 
     54 N          21.6787  -34.0573  -41.7073 N.am      9 UNK        -0.4200 
     55 CA         20.2896  -34.4731  -41.9378 C.3       9 UNK         0.0839 
     56 C          20.1967  -36.0122  -42.1144 C.2       9 UNK         0.5513 
     57 N          19.0165  -36.5323  -42.4189 N.am      9 UNK        -0.7519 
     58 O          21.1804  -36.7390  -41.9800 O.2       9 UNK        -0.4960 
     59 C59        19.2923  -33.9129  -40.8754 C.3       10 UNK        -0.0876 
     60 S60        17.7037  -33.3866  -41.6142 S.3       10 UNK        -0.2414 
     61 C61        17.9162  -31.5781  -41.7432 C.3       10 UNK         0.0169 
     62 H62        16.8177  -22.2017  -40.3406 H         1 UNK         0.0903 
     63 H63        17.3141  -23.8167  -39.8310 H         1 UNK         0.0903 
     64 H64        18.5308  -22.5734  -40.1263 H         1 UNK         0.0903 
     65 H65        17.2547  -25.3117  -41.4887 H         1 UNK         0.3096 
     66 H66        17.1383  -24.5410  -44.2710 H         1 UNK         0.1121 
     67 H67        15.9600  -26.5831  -43.0569 H         1 UNK         0.0849 
     68 H68        17.4755  -27.4132  -43.2831 H         1 UNK         0.0849 
     69 H69        15.1237  -28.9261  -46.0988 H         1 UNK         0.0865 
     70 H70        14.8296  -28.6011  -44.4097 H         1 UNK         0.0865 
     71 H71        16.0831  -29.8141  -42.7516 H         1 UNK         0.1346 
     72 H72        19.4457  -32.1993  -43.9001 H         1 UNK         0.1412 
     73 H73        17.5102  -29.7064  -46.7977 H         1 UNK         0.1426 
     74 H74        19.0282  -31.6715  -47.4626 H         1 UNK         0.0716 
     75 H75        20.0070  -32.4426  -46.2424 H         1 UNK         0.0716 
     76 H76        22.6679  -30.8143  -45.3360 H         1 UNK         0.0695 
     77 H77        21.1631  -30.7923  -44.5036 H         1 UNK         0.0695 
     78 H78        23.1322  -28.6194  -44.9965 H         1 UNK         0.0983 
     79 H79        20.3663  -27.9852  -45.5887 H         1 UNK         0.3095 
     80 H80        21.1151  -24.4426  -45.6847 H         1 UNK         0.0454 
     81 H81        20.1029  -26.5433  -47.6730 H         1 UNK         0.0851 
     82 H82        21.5566  -25.5772  -47.8797 H         1 UNK         0.0851 
     83 H83        19.9885  -24.7920  -47.8432 H         1 UNK         0.0851 
     84 H84        18.5839  -25.4787  -45.9134 H         1 UNK         0.2976 
     85 H85        20.1650  -28.1997  -43.1381 H         1 UNK         0.3116 
     86 H86        20.9810  -29.3139  -40.6746 H         1 UNK         0.0646 
     87 H87        18.6029  -28.7544  -41.2628 H         1 UNK         0.0847 
     88 H88        18.9844  -27.0364  -41.1614 H         1 UNK         0.0847 
     89 H89        19.0795  -28.0465  -39.7292 H         1 UNK         0.0847 
     90 H90        21.4291  -26.0386  -42.0098 H         1 UNK         0.3040 
     91 H91        22.6570  -24.8179  -39.7661 H         1 UNK         0.1015 
     92 H92        23.5033  -23.1936  -41.4749 H         1 UNK         0.0786 
     93 H93        21.8063  -23.5655  -41.7388 H         1 UNK         0.0786 
     94 H94        23.0384  -24.2952  -42.7659 H         1 UNK         0.0786 
     95 H95        23.9296  -27.2318  -41.9432 H         1 UNK         0.3172 
     96 H96        26.7233  -26.8665  -40.9648 H         1 UNK         0.0595 
     97 H97        25.6366  -28.5984  -43.2497 H         1 UNK         0.0839 
     98 H98        27.3247  -28.3615  -42.8274 H         1 UNK         0.0839 
     99 H99        26.3869  -27.0161  -43.4528 H         1 UNK         0.0839 
    100 H100       24.0066  -28.2447  -39.8435 H         1 UNK         0.2998 
    101 H101       23.4108  -29.8266  -38.4678 H         1 UNK         0.0822 
    102 H102       25.4195  -29.1111  -37.1474 H         1 UNK         0.0787 
    103 H103       25.0187  -30.7995  -36.8885 H         1 UNK         0.0787 
    104 H104       26.3729  -30.3759  -37.9233 H         1 UNK         0.0787 
    105 H105       23.6772  -30.5291  -41.2982 H         1 UNK         0.3055 
    106 H106       24.0738  -33.4950  -41.1408 H         1 UNK         0.1106 
    107 H107       23.9824  -31.5699  -43.5262 H         1 UNK         0.0828 
    108 H108       24.1314  -33.3194  -43.6435 H         1 UNK         0.0828 
    109 H109       25.4148  -32.3768  -42.8995 H         1 UNK         0.0828 
    110 H110       22.3139  -34.8280  -41.5429 H         1 UNK         0.2931 
    111 H111       20.0364  -34.0698  -42.9179 H         1 UNK         0.0412 
    112 H112       18.9310  -37.5297  -42.5394 H         1 UNK         0.3472 
    113 H113       18.2058  -35.9395  -42.5179 H         1 UNK         0.3472 
    114 H114       19.0853  -34.6546  -40.1015 H         1 UNK         0.0970 
    115 H115       19.7208  -33.0712  -40.3312 H         1 UNK         0.0970 
    116 H116       18.8937  -31.2724  -41.3705 H         1 UNK         0.0612 
    117 H117       17.1828  -31.1007  -41.0920 H         1 UNK         0.0612 
@<TRIPOS>BOND
     1    1    2 1    
     2    1   62 1    
     3    1   63 1    
     4    1   64 1    
     5    2    3 2    
     6    2    4 am   BACKBONE|DICT|INTERRES
     7    4    5 1    
     8    4   65 1    
     9    5    6 1    
    10    5   25 1    
    11    5   66 1    
    12    6    7 1    
    13    6   67 1    
    14    6   68 1    
    15    7    8 1    
    16    8    9 1    
    17    8   69 1    
    18    8   70 1    
    19    9   10 ar   
    20    9   14 ar   
    21   10   11 ar   
    22   10   71 1    
    23   11   12 ar   
    24   11   61 1    
    25   12   13 ar   
    26   12   72 1    
    27   13   14 ar   
    28   13   15 1    
    29   14   73 1    
    30   15   16 1    
    31   15   74 1    
    32   15   75 1    
    33   16   17 1    
    34   17   18 1    
    35   17   76 1    
    36   17   77 1    
    37   18   19 1    
    38   18   27 1    
    39   18   78 1    
    40   19   20 am   BACKBONE|DICT|INTERRES
    41   19   79 1    
    42   20   21 2    
    43   20   22 1    
    44   22   23 1    
    45   22   24 1    
    46   22   80 1    
    47   23   81 1    
    48   23   82 1    
    49   23   83 1    
    50   24   25 am   BACKBONE|DICT|INTERRES
    51   24   84 1    
    52   25   26 2    
    53   27   28 2    
    54   27   29 am   BACKBONE|DICT|INTERRES
    55   29   30 1    
    56   29   85 1    
    57   30   31 1    
    58   30   32 1    
    59   30   86 1    
    60   31   87 1    
    61   31   88 1    
    62   31   89 1    
    63   32   33 2    
    64   32   34 am   BACKBONE|DICT|INTERRES
    65   34   35 1    
    66   34   90 1    
    67   35   36 1    
    68   35   37 1    
    69   35   91 1    
    70   36   92 1    
    71   36   93 1    
    72   36   94 1    
    73   37   38 2    
    74   37   39 am   BACKBONE|DICT|INTERRES
    75   39   40 1    
    76   39   95 1    
    77   40   41 1    
    78   40   42 1    
    79   40   96 1    
    80   41   97 1    
    81   41   98 1    
    82   41   99 1    
    83   42   43 2    
    84   42   44 am   BACKBONE|DICT|INTERRES
    85   44   45 1    
    86   44  100 1    
    87   45   46 1    
    88   45   47 1    
    89   45  101 1    
    90   46  102 1    
    91   46  103 1    
    92   46  104 1    
    93   47   48 2    
    94   47   49 am   BACKBONE|DICT|INTERRES
    95   49   50 1    
    96   49  105 1    
    97   50   51 1    
    98   50   52 1    
    99   50  106 1    
   100   51  107 1    
   101   51  108 1    
   102   51  109 1    
   103   52   53 2    
   104   52   54 am   BACKBONE|DICT|INTERRES
   105   54   55 1    
   106   54  110 1    
   107   55   56 1    
   108   55   59 1    
   109   55  111 1    
   110   56   57 am   BACKBONE|DICT|INTERRES
   111   56   58 2    
   112   57  112 1    
   113   57  113 1    
   114   59   60 1    
   115   59  114 1    
   116   59  115 1    
   117   60   61 1    
   118   61  116 1    
   119   61  117 1    
@<TRIPOS>SUBSTRUCTURE
     1 UNK         1 GROUP             0       ****    0 ROOT    
