@<TRIPOS>MOLECULE
3R8
117   119    1
SMALL
USER_CHARGES


@<TRIPOS>ATOM
      1 CA         22.3695  -25.3539  -49.2217 C.3       0 UNK        -0.2013 
      2 C          22.1667  -25.5402  -47.7253 C.2       0 UNK         0.4866 
      3 O          22.9016  -24.9532  -46.9307 O.2       0 UNK        -0.5176 
      4 N          21.1820  -26.3589  -47.3366 N.am      1 UNK        -0.4884 
      5 CA         20.8175  -26.6223  -45.9420 C.3       1 UNK         0.0853 
      6 C6         19.8435  -27.8195  -45.8211 C.3       10 UNK        -0.0849 
      7 S7         20.6193  -29.4186  -46.2199 S.3       10 UNK        -0.2776 
      8 C8         19.1818  -30.5294  -46.0760 C.3       10 UNK         0.0316 
      9 C9         18.6944  -30.6738  -44.6385 C.ar      10 UNK        -0.0863 
     10 C10        19.2358  -31.6581  -43.8080 C.ar      10 UNK        -0.1009 
     11 C11        18.7548  -31.8360  -42.5062 C.ar      10 UNK        -0.0712 
     12 C12        17.7470  -30.9951  -42.0226 C.ar      10 UNK        -0.0894 
     13 C13        17.1985  -30.0030  -42.8419 C.ar      10 UNK        -0.0745 
     14 C14        17.6697  -29.8561  -44.1508 C.ar      10 UNK        -0.0972 
     15 C15        16.0537  -29.1307  -42.3412 C.3       10 UNK         0.0209 
     16 S16        16.4937  -27.3638  -42.2714 S.3       10 UNK        -0.2568 
     17 C17        17.4256  -27.2425  -40.7054 C.3       10 UNK        -0.0983 
     18 CA         18.9628  -27.2466  -40.9107 C.3       3 UNK         0.0876 
     19 N          19.4614  -26.2734  -41.8914 N.am      3 UNK        -0.4424 
     20 C          19.2949  -24.9419  -41.9231 C.2       2 UNK         0.4918 
     21 O          18.7245  -24.3090  -41.0334 O.2       2 UNK        -0.4875 
     22 CA         19.8657  -24.1794  -43.1351 C.3       2 UNK         0.0481 
     23 CB         20.7988  -23.0366  -42.6974 C.3       2 UNK        -0.1831 
     24 N          20.5769  -25.0854  -44.0430 N.am      2 UNK        -0.4498 
     25 C          20.1752  -25.3848  -45.2852 C.2       1 UNK         0.5027 
     26 O          19.2832  -24.7808  -45.8874 O.2       1 UNK        -0.4969 
     27 C          19.7223  -27.1753  -39.5715 C.2       3 UNK         0.5005 
     28 O          20.1942  -28.2065  -39.0922 O.2       3 UNK        -0.5279 
     29 N          19.8584  -25.9667  -39.0077 N.am      4 UNK        -0.4463 
     30 CA         20.6854  -25.6727  -37.8324 C.3       4 UNK         0.0283 
     31 CB         20.3118  -24.2891  -37.2775 C.3       4 UNK        -0.1875 
     32 C          22.1899  -25.7402  -38.1510 C.2       4 UNK         0.4949 
     33 O          22.9754  -26.1639  -37.3035 O.2       4 UNK        -0.5039 
     34 N          22.5490  -25.3478  -39.3776 N.am      5 UNK        -0.4663 
     35 CA         23.8525  -25.5461  -39.9981 C.3       5 UNK         0.0242 
     36 CB         24.5511  -24.1893  -40.1875 C.3       5 UNK        -0.1982 
     37 C          23.5552  -26.2185  -41.3395 C.2       5 UNK         0.5017 
     38 O          22.7952  -25.6509  -42.1260 O.2       5 UNK        -0.5012 
     39 N          24.0946  -27.4285  -41.5414 N.am      6 UNK        -0.4439 
     40 CA         23.7209  -28.3930  -42.5858 C.3       6 UNK         0.0297 
     41 CB         24.1169  -27.8829  -43.9874 C.3       6 UNK        -0.2006 
     42 C          22.2177  -28.7464  -42.4922 C.2       6 UNK         0.4892 
     43 O          21.4072  -28.0434  -43.0905 O.2       6 UNK        -0.5089 
     44 N          21.7930  -29.7656  -41.7282 N.am      7 UNK        -0.4243 
     45 CA         22.5352  -30.7693  -40.9488 C.3       7 UNK         0.0196 
     46 CB         23.3901  -30.1413  -39.8275 C.3       7 UNK        -0.2007 
     47 C          23.3074  -31.7825  -41.8169 C.2       7 UNK         0.5020 
     48 O          24.2373  -32.4224  -41.3286 O.2       7 UNK        -0.5147 
     49 N          22.8993  -31.9230  -43.0863 N.am      8 UNK        -0.4734 
     50 CA         23.4730  -32.8625  -44.0588 C.3       8 UNK         0.0238 
     51 CB         23.1180  -32.3774  -45.4751 C.3       8 UNK        -0.1912 
     52 C          23.0216  -34.3243  -43.8549 C.2       8 UNK         0.5038 
     53 O          23.5655  -35.2171  -44.5059 O.2       8 UNK        -0.5046 
     54 N          22.0268  -34.5324  -42.9838 N.am      9 UNK        -0.4200 
     55 CA         21.4363  -35.8211  -42.5976 C.3       9 UNK         0.0839 
     56 C          22.4731  -36.8044  -41.9894 C.2       9 UNK         0.5513 
     57 N          22.3851  -38.0843  -42.3237 N.am      9 UNK        -0.7519 
     58 O          23.3190  -36.4247  -41.1826 O.2       9 UNK        -0.4960 
     59 C59        20.2509  -35.6147  -41.6154 C.3       10 UNK        -0.0876 
     60 S60        18.9170  -34.5908  -42.3265 S.3       10 UNK        -0.2414 
     61 C61        19.3147  -32.9519  -41.6372 C.3       10 UNK         0.0169 
     62 H62        22.2466  -24.3046  -49.4888 H         1 UNK         0.0903 
     63 H63        23.3754  -25.6623  -49.5052 H         1 UNK         0.0903 
     64 H64        21.6587  -25.9380  -49.8060 H         1 UNK         0.0903 
     65 H65        20.6044  -26.8114  -48.0305 H         1 UNK         0.3096 
     66 H66        21.7327  -26.8624  -45.4007 H         1 UNK         0.1121 
     67 H67        19.4621  -27.8921  -44.8015 H         1 UNK         0.0849 
     68 H68        18.9705  -27.6741  -46.4605 H         1 UNK         0.0849 
     69 H69        19.4569  -31.5090  -46.4697 H         1 UNK         0.0865 
     70 H70        18.3757  -30.1669  -46.7158 H         1 UNK         0.0865 
     71 H71        20.0072  -32.3133  -44.1877 H         1 UNK         0.1346 
     72 H72        17.3705  -31.1305  -41.0178 H         1 UNK         0.1412 
     73 H73        17.2316  -29.1028  -44.7915 H         1 UNK         0.1426 
     74 H74        15.7003  -29.4612  -41.3633 H         1 UNK         0.0716 
     75 H75        15.2085  -29.2475  -43.0209 H         1 UNK         0.0716 
     76 H76        17.1289  -28.0623  -40.0487 H         1 UNK         0.0695 
     77 H77        17.1084  -26.3277  -40.2023 H         1 UNK         0.0695 
     78 H78        19.2117  -28.2174  -41.3414 H         1 UNK         0.0983 
     79 H79        20.0305  -26.6970  -42.6174 H         1 UNK         0.3095 
     80 H80        19.0091  -23.7299  -43.6405 H         1 UNK         0.0454 
     81 H81        21.2092  -22.5102  -43.5590 H         1 UNK         0.0851 
     82 H82        21.6332  -23.3918  -42.0949 H         1 UNK         0.0851 
     83 H83        20.2595  -22.3020  -42.0982 H         1 UNK         0.0851 
     84 H84        21.3528  -25.5945  -43.6253 H         1 UNK         0.2976 
     85 H85        19.4241  -25.1817  -39.4872 H         1 UNK         0.3116 
     86 H86        20.4711  -26.4202  -37.0655 H         1 UNK         0.0646 
     87 H87        20.9029  -24.0523  -36.3917 H         1 UNK         0.0847 
     88 H88        19.2624  -24.2490  -36.9853 H         1 UNK         0.0847 
     89 H89        20.4874  -23.4981  -38.0078 H         1 UNK         0.0847 
     90 H90        21.8222  -25.0609  -40.0185 H         1 UNK         0.3040 
     91 H91        24.4818  -26.1962  -39.3859 H         1 UNK         0.1015 
     92 H92        24.7241  -23.6985  -39.2296 H         1 UNK         0.0786 
     93 H93        23.9633  -23.5115  -40.8080 H         1 UNK         0.0786 
     94 H94        25.5213  -24.3156  -40.6693 H         1 UNK         0.0786 
     95 H95        24.7122  -27.7882  -40.8279 H         1 UNK         0.3172 
     96 H96        24.3090  -29.2925  -42.4201 H         1 UNK         0.0595 
     97 H97        23.6882  -26.9077  -44.2136 H         1 UNK         0.0839 
     98 H98        23.7809  -28.5734  -44.7624 H         1 UNK         0.0839 
     99 H99        25.1989  -27.7929  -44.0800 H         1 UNK         0.0839 
    100 H100       20.7928  -29.9017  -41.7067 H         1 UNK         0.2998 
    101 H101       21.7628  -31.3481  -40.4421 H         1 UNK         0.0822 
    102 H102       23.5893  -30.8776  -39.0480 H         1 UNK         0.0787 
    103 H103       22.8797  -29.3026  -39.3524 H         1 UNK         0.0787 
    104 H104       24.3618  -29.8001  -40.1800 H         1 UNK         0.0787 
    105 H105       22.1422  -31.3390  -43.4134 H         1 UNK         0.3055 
    106 H106       24.5605  -32.8482  -43.9545 H         1 UNK         0.1106 
    107 H107       23.5746  -33.0154  -46.2331 H         1 UNK         0.0828 
    108 H108       22.0418  -32.3857  -45.6501 H         1 UNK         0.0828 
    109 H109       23.4774  -31.3631  -45.6507 H         1 UNK         0.0828 
    110 H110       21.6655  -33.7279  -42.5004 H         1 UNK         0.2931 
    111 H111       21.0442  -36.2685  -43.5133 H         1 UNK         0.0412 
    112 H112       21.6860  -38.4061  -42.9759 H         1 UNK         0.3472 
    113 H113       23.0379  -38.7418  -41.9255 H         1 UNK         0.3472 
    114 H114       19.8112  -36.5786  -41.3515 H         1 UNK         0.0970 
    115 H115       20.5923  -35.1765  -40.6753 H         1 UNK         0.0970 
    116 H116       18.9285  -32.8915  -40.6185 H         1 UNK         0.0612 
    117 H117       20.3930  -32.8320  -41.5659 H         1 UNK         0.0612 
@<TRIPOS>BOND
     1    1    2 1    
     2    1   62 1    
     3    1   63 1    
     4    1   64 1    
     5    2    3 2    
     6    2    4 am   BACKBONE|DICT|INTERRES
     7    4    5 1    
     8    4   65 1    
     9    5    6 1    
    10    5   25 1    
    11    5   66 1    
    12    6    7 1    
    13    6   67 1    
    14    6   68 1    
    15    7    8 1    
    16    8    9 1    
    17    8   69 1    
    18    8   70 1    
    19    9   10 ar   
    20    9   14 ar   
    21   10   11 ar   
    22   10   71 1    
    23   11   12 ar   
    24   11   61 1    
    25   12   13 ar   
    26   12   72 1    
    27   13   14 ar   
    28   13   15 1    
    29   14   73 1    
    30   15   16 1    
    31   15   74 1    
    32   15   75 1    
    33   16   17 1    
    34   17   18 1    
    35   17   76 1    
    36   17   77 1    
    37   18   19 1    
    38   18   27 1    
    39   18   78 1    
    40   19   20 am   BACKBONE|DICT|INTERRES
    41   19   79 1    
    42   20   21 2    
    43   20   22 1    
    44   22   23 1    
    45   22   24 1    
    46   22   80 1    
    47   23   81 1    
    48   23   82 1    
    49   23   83 1    
    50   24   25 am   BACKBONE|DICT|INTERRES
    51   24   84 1    
    52   25   26 2    
    53   27   28 2    
    54   27   29 am   BACKBONE|DICT|INTERRES
    55   29   30 1    
    56   29   85 1    
    57   30   31 1    
    58   30   32 1    
    59   30   86 1    
    60   31   87 1    
    61   31   88 1    
    62   31   89 1    
    63   32   33 2    
    64   32   34 am   BACKBONE|DICT|INTERRES
    65   34   35 1    
    66   34   90 1    
    67   35   36 1    
    68   35   37 1    
    69   35   91 1    
    70   36   92 1    
    71   36   93 1    
    72   36   94 1    
    73   37   38 2    
    74   37   39 am   BACKBONE|DICT|INTERRES
    75   39   40 1    
    76   39   95 1    
    77   40   41 1    
    78   40   42 1    
    79   40   96 1    
    80   41   97 1    
    81   41   98 1    
    82   41   99 1    
    83   42   43 2    
    84   42   44 am   BACKBONE|DICT|INTERRES
    85   44   45 1    
    86   44  100 1    
    87   45   46 1    
    88   45   47 1    
    89   45  101 1    
    90   46  102 1    
    91   46  103 1    
    92   46  104 1    
    93   47   48 2    
    94   47   49 am   BACKBONE|DICT|INTERRES
    95   49   50 1    
    96   49  105 1    
    97   50   51 1    
    98   50   52 1    
    99   50  106 1    
   100   51  107 1    
   101   51  108 1    
   102   51  109 1    
   103   52   53 2    
   104   52   54 am   BACKBONE|DICT|INTERRES
   105   54   55 1    
   106   54  110 1    
   107   55   56 1    
   108   55   59 1    
   109   55  111 1    
   110   56   57 am   BACKBONE|DICT|INTERRES
   111   56   58 2    
   112   57  112 1    
   113   57  113 1    
   114   59   60 1    
   115   59  114 1    
   116   59  115 1    
   117   60   61 1    
   118   61  116 1    
   119   61  117 1    
@<TRIPOS>SUBSTRUCTURE
     1 UNK         1 GROUP             0       ****    0 ROOT    
