@<TRIPOS>MOLECULE
3R8
117   119    1
SMALL
USER_CHARGES


@<TRIPOS>ATOM
      1 CA         12.7304  -25.5589  -41.9278 C.3       0 UNK        -0.2013 
      2 C          14.0615  -26.1503  -42.3688 C.2       0 UNK         0.4866 
      3 O          14.5394  -27.0911  -41.7355 O.2       0 UNK        -0.5176 
      4 N          14.6434  -25.5940  -43.4430 N.am      1 UNK        -0.4884 
      5 CA         15.9219  -25.9478  -44.0808 C.3       1 UNK         0.0853 
      6 C6         15.7974  -27.0632  -45.1599 C.3       10 UNK        -0.0849 
      7 S7         15.3413  -28.7336  -44.5712 S.3       10 UNK        -0.2776 
      8 C8         16.2020  -29.8009  -45.7695 C.3       10 UNK         0.0316 
      9 C9         17.7131  -29.7748  -45.5863 C.ar      10 UNK        -0.0863 
     10 C10        18.3103  -30.5196  -44.5651 C.ar      10 UNK        -0.1009 
     11 C11        19.7002  -30.5309  -44.4154 C.ar      10 UNK        -0.0712 
     12 C12        20.4936  -29.7849  -45.2921 C.ar      10 UNK        -0.0894 
     13 C13        19.9073  -29.0212  -46.3050 C.ar      10 UNK        -0.0745 
     14 C14        18.5177  -29.0279  -46.4525 C.ar      10 UNK        -0.0972 
     15 C15        20.7688  -28.2047  -47.2575 C.3       10 UNK         0.0209 
     16 S16        20.9752  -26.4861  -46.6868 S.3       10 UNK        -0.2568 
     17 C17        22.3013  -26.6520  -45.4431 C.3       10 UNK        -0.0983 
     18 CA         21.8706  -26.1939  -44.0276 C.3       3 UNK         0.0876 
     19 N          20.6908  -26.9226  -43.5477 N.am      3 UNK        -0.4424 
     20 C          20.0826  -26.7491  -42.3658 C.2       2 UNK         0.4918 
     21 O          20.4280  -25.9162  -41.5247 O.2       2 UNK        -0.4875 
     22 CA         18.8425  -27.6278  -42.1236 C.3       2 UNK         0.0481 
     23 CB         18.3892  -27.6384  -40.6482 C.3       2 UNK        -0.1831 
     24 N          17.7293  -27.2611  -43.0079 N.am      2 UNK        -0.4498 
     25 C          17.0929  -26.0808  -43.0771 C.2       1 UNK         0.5027 
     26 O          17.3882  -25.0960  -42.3964 O.2       1 UNK        -0.4969 
     27 C          23.0537  -26.3363  -43.0486 C.2       3 UNK         0.5005 
     28 O          23.4221  -27.4638  -42.7165 O.2       3 UNK        -0.5279 
     29 N          23.6384  -25.2078  -42.6201 N.am      4 UNK        -0.4463 
     30 CA         24.6392  -25.1128  -41.5455 C.3       4 UNK         0.0283 
     31 CB         25.0381  -23.6405  -41.3553 C.3       4 UNK        -0.1875 
     32 C          25.8973  -25.9858  -41.7139 C.2       4 UNK         0.4949 
     33 O          26.4886  -26.3837  -40.7106 O.2       4 UNK        -0.5039 
     34 N          26.2723  -26.2865  -42.9642 N.am      5 UNK        -0.4663 
     35 CA         27.3755  -27.1895  -43.3041 C.3       5 UNK         0.0242 
     36 CB         27.7427  -26.9929  -44.7841 C.3       5 UNK        -0.1982 
     37 C          27.0705  -28.6741  -43.0213 C.2       5 UNK         0.5017 
     38 O          28.0108  -29.4502  -42.8471 O.2       5 UNK        -0.5012 
     39 N          25.7827  -29.0432  -42.9982 N.am      6 UNK        -0.4439 
     40 CA         25.2925  -30.4077  -42.7849 C.3       6 UNK         0.0297 
     41 CB         24.3704  -30.7706  -43.9587 C.3       6 UNK        -0.2006 
     42 C          24.5512  -30.5651  -41.4430 C.2       6 UNK         0.4892 
     43 O          24.3872  -31.6971  -40.9848 O.2       6 UNK        -0.5089 
     44 N          24.1249  -29.4446  -40.8403 N.am      7 UNK        -0.4243 
     45 CA         23.3562  -29.3267  -39.5990 C.3       7 UNK         0.0196 
     46 CB         24.1575  -29.8563  -38.3870 C.3       7 UNK        -0.2007 
     47 C          21.9526  -29.9355  -39.7654 C.2       7 UNK         0.5020 
     48 O          21.2779  -29.6144  -40.7420 O.2       7 UNK        -0.5147 
     49 N          21.5216  -30.7822  -38.8210 N.am      8 UNK        -0.4734 
     50 CA         20.2243  -31.4682  -38.8587 C.3       8 UNK         0.0238 
     51 CB         19.9004  -32.0096  -37.4565 C.3       8 UNK        -0.1912 
     52 C          20.1522  -32.5994  -39.9028 C.2       8 UNK         0.5038 
     53 O          19.0469  -32.9462  -40.3201 O.2       8 UNK        -0.5046 
     54 N          21.3204  -33.1325  -40.2913 N.am      9 UNK        -0.4200 
     55 CA         21.5525  -34.2209  -41.2540 C.3       9 UNK         0.0839 
     56 C          20.6518  -35.4824  -41.0778 C.2       9 UNK         0.5513 
     57 N          20.2879  -36.1781  -42.1470 N.am      9 UNK        -0.7519 
     58 O          20.3437  -35.8832  -39.9570 O.2       9 UNK        -0.4960 
     59 C59        21.7733  -33.7036  -42.7062 C.3       10 UNK        -0.0876 
     60 S60        20.3010  -33.1169  -43.6176 S.3       10 UNK        -0.2414 
     61 C61        20.3422  -31.3272  -43.2909 C.3       10 UNK         0.0169 
     62 H62        12.8071  -25.1820  -40.9082 H         1 UNK         0.0903 
     63 H63        12.4130  -24.7372  -42.5697 H         1 UNK         0.0903 
     64 H64        11.9551  -26.3244  -41.9504 H         1 UNK         0.0903 
     65 H65        14.1765  -24.8063  -43.8709 H         1 UNK         0.3096 
     66 H66        16.1849  -25.0480  -44.6406 H         1 UNK         0.1121 
     67 H67        15.0434  -26.7661  -45.8905 H         1 UNK         0.0849 
     68 H68        16.7273  -27.1118  -45.7253 H         1 UNK         0.0849 
     69 H69        15.8428  -30.8242  -45.6492 H         1 UNK         0.0865 
     70 H70        15.9279  -29.5037  -46.7832 H         1 UNK         0.0865 
     71 H71        17.6949  -31.0983  -43.8893 H         1 UNK         0.1346 
     72 H72        21.5682  -29.7952  -45.1846 H         1 UNK         0.1412 
     73 H73        18.0642  -28.4518  -47.2479 H         1 UNK         0.1426 
     74 H74        20.3040  -28.1878  -48.2445 H         1 UNK         0.0716 
     75 H75        21.7444  -28.6734  -47.3961 H         1 UNK         0.0716 
     76 H76        22.6585  -27.6830  -45.4213 H         1 UNK         0.0695 
     77 H77        23.1455  -26.0534  -45.7908 H         1 UNK         0.0695 
     78 H78        21.5882  -25.1405  -44.0791 H         1 UNK         0.0983 
     79 H79        20.3246  -27.6200  -44.1800 H         1 UNK         0.3095 
     80 H80        19.1230  -28.6491  -42.3790 H         1 UNK         0.0454 
     81 H81        19.1971  -27.9750  -39.9978 H         1 UNK         0.0851 
     82 H82        17.5480  -28.3150  -40.4990 H         1 UNK         0.0851 
     83 H83        18.0879  -26.6489  -40.3040 H         1 UNK         0.0851 
     84 H84        17.3802  -28.0029  -43.6032 H         1 UNK         0.2976 
     85 H85        23.2845  -24.3273  -42.9670 H         1 UNK         0.3116 
     86 H86        24.1467  -25.4487  -40.6305 H         1 UNK         0.0646 
     87 H87        25.4947  -23.2265  -42.2552 H         1 UNK         0.0847 
     88 H88        24.1768  -23.0233  -41.0991 H         1 UNK         0.0847 
     89 H89        25.7609  -23.5322  -40.5451 H         1 UNK         0.0847 
     90 H90        25.7331  -25.9083  -43.7296 H         1 UNK         0.3040 
     91 H91        28.2415  -26.9157  -42.6968 H         1 UNK         0.1015 
     92 H92        28.5830  -27.6293  -45.0656 H         1 UNK         0.0786 
     93 H93        28.0374  -25.9631  -44.9870 H         1 UNK         0.0786 
     94 H94        26.9104  -27.2420  -45.4438 H         1 UNK         0.0786 
     95 H95        25.0684  -28.3271  -43.1040 H         1 UNK         0.3172 
     96 H96        26.1256  -31.1132  -42.7784 H         1 UNK         0.0595 
     97 H97        23.4741  -30.1513  -43.9622 H         1 UNK         0.0839 
     98 H98        24.0597  -31.8131  -43.9075 H         1 UNK         0.0839 
     99 H99        24.8742  -30.6359  -44.9160 H         1 UNK         0.0839 
    100 H100       24.1616  -28.5919  -41.3902 H         1 UNK         0.2998 
    101 H101       23.1994  -28.2576  -39.4476 H         1 UNK         0.0822 
    102 H102       23.6480  -29.6349  -37.4484 H         1 UNK         0.0787 
    103 H103       25.1372  -29.3811  -38.3330 H         1 UNK         0.0787 
    104 H104       24.3190  -30.9338  -38.4337 H         1 UNK         0.0787 
    105 H105       22.1304  -30.9888  -38.0419 H         1 UNK         0.3055 
    106 H106       19.4590  -30.7360  -39.1278 H         1 UNK         0.1106 
    107 H107       19.8664  -31.2080  -36.7184 H         1 UNK         0.0828 
    108 H108       18.9258  -32.4998  -37.4439 H         1 UNK         0.0828 
    109 H109       20.6368  -32.7429  -37.1255 H         1 UNK         0.0828 
    110 H110       22.1581  -32.7459  -39.8810 H         1 UNK         0.2931 
    111 H111       22.5304  -34.5953  -40.9484 H         1 UNK         0.0412 
    112 H112       19.7303  -37.0096  -42.0279 H         1 UNK         0.3472 
    113 H113       20.5138  -35.8505  -43.0733 H         1 UNK         0.3472 
    114 H114       22.5155  -32.9078  -42.6826 H         1 UNK         0.0970 
    115 H115       22.2358  -34.4895  -43.3053 H         1 UNK         0.0970 
    116 H116       21.3674  -30.9932  -43.1314 H         1 UNK         0.0612 
    117 H117       19.8065  -31.1255  -42.3640 H         1 UNK         0.0612 
@<TRIPOS>BOND
     1    1    2 1    
     2    1   62 1    
     3    1   63 1    
     4    1   64 1    
     5    2    3 2    
     6    2    4 am   BACKBONE|DICT|INTERRES
     7    4    5 1    
     8    4   65 1    
     9    5    6 1    
    10    5   25 1    
    11    5   66 1    
    12    6    7 1    
    13    6   67 1    
    14    6   68 1    
    15    7    8 1    
    16    8    9 1    
    17    8   69 1    
    18    8   70 1    
    19    9   10 ar   
    20    9   14 ar   
    21   10   11 ar   
    22   10   71 1    
    23   11   12 ar   
    24   11   61 1    
    25   12   13 ar   
    26   12   72 1    
    27   13   14 ar   
    28   13   15 1    
    29   14   73 1    
    30   15   16 1    
    31   15   74 1    
    32   15   75 1    
    33   16   17 1    
    34   17   18 1    
    35   17   76 1    
    36   17   77 1    
    37   18   19 1    
    38   18   27 1    
    39   18   78 1    
    40   19   20 am   BACKBONE|DICT|INTERRES
    41   19   79 1    
    42   20   21 2    
    43   20   22 1    
    44   22   23 1    
    45   22   24 1    
    46   22   80 1    
    47   23   81 1    
    48   23   82 1    
    49   23   83 1    
    50   24   25 am   BACKBONE|DICT|INTERRES
    51   24   84 1    
    52   25   26 2    
    53   27   28 2    
    54   27   29 am   BACKBONE|DICT|INTERRES
    55   29   30 1    
    56   29   85 1    
    57   30   31 1    
    58   30   32 1    
    59   30   86 1    
    60   31   87 1    
    61   31   88 1    
    62   31   89 1    
    63   32   33 2    
    64   32   34 am   BACKBONE|DICT|INTERRES
    65   34   35 1    
    66   34   90 1    
    67   35   36 1    
    68   35   37 1    
    69   35   91 1    
    70   36   92 1    
    71   36   93 1    
    72   36   94 1    
    73   37   38 2    
    74   37   39 am   BACKBONE|DICT|INTERRES
    75   39   40 1    
    76   39   95 1    
    77   40   41 1    
    78   40   42 1    
    79   40   96 1    
    80   41   97 1    
    81   41   98 1    
    82   41   99 1    
    83   42   43 2    
    84   42   44 am   BACKBONE|DICT|INTERRES
    85   44   45 1    
    86   44  100 1    
    87   45   46 1    
    88   45   47 1    
    89   45  101 1    
    90   46  102 1    
    91   46  103 1    
    92   46  104 1    
    93   47   48 2    
    94   47   49 am   BACKBONE|DICT|INTERRES
    95   49   50 1    
    96   49  105 1    
    97   50   51 1    
    98   50   52 1    
    99   50  106 1    
   100   51  107 1    
   101   51  108 1    
   102   51  109 1    
   103   52   53 2    
   104   52   54 am   BACKBONE|DICT|INTERRES
   105   54   55 1    
   106   54  110 1    
   107   55   56 1    
   108   55   59 1    
   109   55  111 1    
   110   56   57 am   BACKBONE|DICT|INTERRES
   111   56   58 2    
   112   57  112 1    
   113   57  113 1    
   114   59   60 1    
   115   59  114 1    
   116   59  115 1    
   117   60   61 1    
   118   61  116 1    
   119   61  117 1    
@<TRIPOS>SUBSTRUCTURE
     1 UNK         1 GROUP             0       ****    0 ROOT    
