@<TRIPOS>MOLECULE
3R8
117   119    1
SMALL
USER_CHARGES


@<TRIPOS>ATOM
      1 CA         19.6120  -24.4766  -49.2997 C.3       0 UNK        -0.2013 
      2 C          20.4669  -25.3410  -48.3852 C.2       0 UNK         0.4866 
      3 O          21.6670  -25.0971  -48.2596 O.2       0 UNK        -0.5176 
      4 N          19.8589  -26.3505  -47.7469 N.am      1 UNK        -0.4884 
      5 CA         20.5253  -27.2719  -46.8153 C.3       1 UNK         0.0853 
      6 C6         19.6749  -28.5477  -46.5936 C.3       10 UNK        -0.0849 
      7 S7         20.6784  -29.9845  -46.0896 S.3       10 UNK        -0.2776 
      8 C8         19.3743  -31.1773  -45.6614 C.3       10 UNK         0.0316 
      9 C9         18.7649  -30.8958  -44.2950 C.ar      10 UNK        -0.0863 
     10 C10        19.4261  -31.3144  -43.1381 C.ar      10 UNK        -0.1009 
     11 C11        18.8473  -31.1451  -41.8731 C.ar      10 UNK        -0.0712 
     12 C12        17.6107  -30.4996  -41.7825 C.ar      10 UNK        -0.0894 
     13 C13        16.9640  -30.0242  -42.9269 C.ar      10 UNK        -0.0745 
     14 C14        17.5344  -30.2445  -44.1832 C.ar      10 UNK        -0.0972 
     15 C15        15.6564  -29.2585  -42.8084 C.3       10 UNK         0.0209 
     16 S16        15.9406  -27.4610  -42.8811 S.3       10 UNK        -0.2568 
     17 C17        16.7016  -27.1247  -41.2543 C.3       10 UNK        -0.0983 
     18 CA         18.2475  -27.0050  -41.3001 C.3       3 UNK         0.0876 
     19 N          18.6997  -26.0525  -42.3242 N.am      3 UNK        -0.4424 
     20 C          19.9728  -25.7498  -42.6081 C.2       2 UNK         0.4918 
     21 O          20.9371  -26.1751  -41.9702 O.2       2 UNK        -0.4875 
     22 CA         20.1853  -24.8280  -43.8208 C.3       2 UNK         0.0481 
     23 CB         21.4980  -24.0224  -43.7350 C.3       2 UNK        -0.1831 
     24 N          20.1055  -25.5806  -45.0772 N.am      2 UNK        -0.4498 
     25 C          20.8881  -26.6006  -45.4719 C.2       1 UNK         0.5027 
     26 O          21.8595  -27.0132  -44.8389 O.2       1 UNK        -0.4969 
     27 C          18.7968  -26.7137  -39.8856 C.2       3 UNK         0.5005 
     28 O          19.0737  -27.6525  -39.1387 O.2       3 UNK        -0.5279 
     29 N          18.9638  -25.4239  -39.5559 N.am      4 UNK        -0.4463 
     30 CA         19.5465  -24.9510  -38.2976 C.3       4 UNK         0.0283 
     31 CB         19.1737  -23.4738  -38.0922 C.3       4 UNK        -0.1875 
     32 C          21.0744  -25.1308  -38.2210 C.2       4 UNK         0.4949 
     33 O          21.6030  -25.2598  -37.1165 O.2       4 UNK        -0.5039 
     34 N          21.7585  -25.1264  -39.3746 N.am      5 UNK        -0.4663 
     35 CA         23.2026  -25.3589  -39.4767 C.3       5 UNK         0.0242 
     36 CB         23.7548  -24.6675  -40.7335 C.3       5 UNK        -0.1982 
     37 C          23.5379  -26.8586  -39.4953 C.2       5 UNK         0.5017 
     38 O          24.5930  -27.2350  -38.9847 O.2       5 UNK        -0.5012 
     39 N          22.6276  -27.6710  -40.0578 N.am      6 UNK        -0.4439 
     40 CA         22.6610  -29.1354  -40.1392 C.3       6 UNK         0.0297 
     41 CB         22.5918  -29.7566  -38.7261 C.3       6 UNK        -0.2006 
     42 C          23.8599  -29.6384  -40.9650 C.2       6 UNK         0.4892 
     43 O          24.7774  -30.2553  -40.4204 O.2       6 UNK        -0.5089 
     44 N          23.8415  -29.3204  -42.2674 N.am      7 UNK        -0.4243 
     45 CA         24.9434  -29.5522  -43.2078 C.3       7 UNK         0.0196 
     46 CB         24.6250  -28.8497  -44.5370 C.3       7 UNK        -0.2007 
     47 C          25.3083  -31.0272  -43.4625 C.2       7 UNK         0.5020 
     48 O          26.4691  -31.3011  -43.7710 O.2       7 UNK        -0.5147 
     49 N          24.3406  -31.9459  -43.3485 N.am      8 UNK        -0.4734 
     50 CA         24.5448  -33.3833  -43.5555 C.3       8 UNK         0.0238 
     51 CB         24.6361  -33.7226  -45.0578 C.3       8 UNK        -0.1912 
     52 C          23.4407  -34.1845  -42.8618 C.2       8 UNK         0.5038 
     53 O          23.7377  -34.9890  -41.9784 O.2       8 UNK        -0.5046 
     54 N          22.1896  -33.9216  -43.2634 N.am      9 UNK        -0.4200 
     55 CA         20.9531  -34.4911  -42.6917 C.3       9 UNK         0.0839 
     56 C          20.7299  -36.0054  -42.9862 C.2       9 UNK         0.5513 
     57 N          21.4333  -36.6034  -43.9403 N.am      9 UNK        -0.7519 
     58 O          19.8849  -36.6440  -42.3638 O.2       9 UNK        -0.4960 
     59 C59        20.7397  -34.1410  -41.1864 C.3       10 UNK        -0.0876 
     60 S60        21.1417  -32.4133  -40.7401 S.3       10 UNK        -0.2414 
     61 C61        19.5064  -31.6179  -40.5749 C.3       10 UNK         0.0169 
     62 H62        19.9991  -24.5112  -50.3178 H         1 UNK         0.0903 
     63 H63        18.5734  -24.8062  -49.3211 H         1 UNK         0.0903 
     64 H64        19.6320  -23.4405  -48.9629 H         1 UNK         0.0903 
     65 H65        18.8728  -26.5104  -47.9006 H         1 UNK         0.3096 
     66 H66        21.4682  -27.5671  -47.2826 H         1 UNK         0.1121 
     67 H67        18.8823  -28.3694  -45.8645 H         1 UNK         0.0849 
     68 H68        19.1725  -28.8293  -47.5207 H         1 UNK         0.0849 
     69 H69        18.6061  -31.1783  -46.4364 H         1 UNK         0.0865 
     70 H70        19.8028  -32.1807  -45.6647 H         1 UNK         0.0865 
     71 H71        20.3938  -31.7762  -43.2427 H         1 UNK         0.1346 
     72 H72        17.1619  -30.3425  -40.8109 H         1 UNK         0.1412 
     73 H73        17.0237  -29.8974  -45.0712 H         1 UNK         0.1426 
     74 H74        15.1333  -29.5157  -41.8860 H         1 UNK         0.0716 
     75 H75        14.9911  -29.5435  -43.6248 H         1 UNK         0.0716 
     76 H76        16.3984  -27.9028  -40.5513 H         1 UNK         0.0695 
     77 H77        16.2632  -26.1979  -40.8790 H         1 UNK         0.0695 
     78 H78        18.6583  -27.9724  -41.5930 H         1 UNK         0.0983 
     79 H79        17.9701  -25.6803  -42.9152 H         1 UNK         0.3095 
     80 H80        19.3646  -24.1091  -43.8321 H         1 UNK         0.0454 
     81 H81        22.3780  -24.6650  -43.7566 H         1 UNK         0.0851 
     82 H82        21.5411  -23.4443  -42.8113 H         1 UNK         0.0851 
     83 H83        21.5828  -23.3186  -44.5627 H         1 UNK         0.0851 
     84 H84        19.3431  -25.3281  -45.6898 H         1 UNK         0.2976 
     85 H85        18.6988  -24.7207  -40.2308 H         1 UNK         0.3116 
     86 H86        19.1073  -25.5275  -37.4803 H         1 UNK         0.0646 
     87 H87        19.5758  -22.8400  -38.8836 H         1 UNK         0.0847 
     88 H88        19.5681  -23.1007  -37.1459 H         1 UNK         0.0847 
     89 H89        18.0927  -23.3359  -38.0660 H         1 UNK         0.0847 
     90 H90        21.2475  -25.0878  -40.2479 H         1 UNK         0.3040 
     91 H91        23.6950  -24.9179  -38.6068 H         1 UNK         0.1015 
     92 H92        23.3756  -25.1255  -41.6465 H         1 UNK         0.0786 
     93 H93        24.8427  -24.7392  -40.7666 H         1 UNK         0.0786 
     94 H94        23.4984  -23.6082  -40.7531 H         1 UNK         0.0786 
     95 H95        21.8465  -27.2224  -40.5269 H         1 UNK         0.3172 
     96 H96        21.7589  -29.4327  -40.6756 H         1 UNK         0.0595 
     97 H97        23.4409  -29.4671  -38.1070 H         1 UNK         0.0839 
     98 H98        22.5934  -30.8452  -38.7733 H         1 UNK         0.0839 
     99 H99        21.6806  -29.4550  -38.2091 H         1 UNK         0.0839 
    100 H100       23.0537  -28.7965  -42.6248 H         1 UNK         0.2998 
    101 H101       25.8305  -29.0779  -42.7823 H         1 UNK         0.0822 
    102 H102       24.4981  -27.7758  -44.3974 H         1 UNK         0.0787 
    103 H103       25.4316  -28.9872  -45.2585 H         1 UNK         0.0787 
    104 H104       23.7116  -29.2386  -44.9896 H         1 UNK         0.0787 
    105 H105       23.4279  -31.6542  -43.0264 H         1 UNK         0.3055 
    106 H106       25.4869  -33.6710  -43.0820 H         1 UNK         0.1106 
    107 H107       24.7107  -34.7999  -45.2123 H         1 UNK         0.0828 
    108 H108       23.7659  -33.3696  -45.6118 H         1 UNK         0.0828 
    109 H109       25.5198  -33.2745  -45.5122 H         1 UNK         0.0828 
    110 H110       22.0593  -33.2839  -44.0339 H         1 UNK         0.2931 
    111 H111       20.1446  -34.0120  -43.2419 H         1 UNK         0.0412 
    112 H112       22.1228  -36.0911  -44.4660 H         1 UNK         0.3472 
    113 H113       21.2754  -37.5807  -44.1313 H         1 UNK         0.3472 
    114 H114       21.3647  -34.7849  -40.5652 H         1 UNK         0.0970 
    115 H115       19.7114  -34.3574  -40.8924 H         1 UNK         0.0970 
    116 H116       18.8309  -32.2945  -40.0499 H         1 UNK         0.0612 
    117 H117       19.6319  -30.7494  -39.9262 H         1 UNK         0.0612 
@<TRIPOS>BOND
     1    1    2 1    
     2    1   62 1    
     3    1   63 1    
     4    1   64 1    
     5    2    3 2    
     6    2    4 am   BACKBONE|DICT|INTERRES
     7    4    5 1    
     8    4   65 1    
     9    5    6 1    
    10    5   25 1    
    11    5   66 1    
    12    6    7 1    
    13    6   67 1    
    14    6   68 1    
    15    7    8 1    
    16    8    9 1    
    17    8   69 1    
    18    8   70 1    
    19    9   10 ar   
    20    9   14 ar   
    21   10   11 ar   
    22   10   71 1    
    23   11   12 ar   
    24   11   61 1    
    25   12   13 ar   
    26   12   72 1    
    27   13   14 ar   
    28   13   15 1    
    29   14   73 1    
    30   15   16 1    
    31   15   74 1    
    32   15   75 1    
    33   16   17 1    
    34   17   18 1    
    35   17   76 1    
    36   17   77 1    
    37   18   19 1    
    38   18   27 1    
    39   18   78 1    
    40   19   20 am   BACKBONE|DICT|INTERRES
    41   19   79 1    
    42   20   21 2    
    43   20   22 1    
    44   22   23 1    
    45   22   24 1    
    46   22   80 1    
    47   23   81 1    
    48   23   82 1    
    49   23   83 1    
    50   24   25 am   BACKBONE|DICT|INTERRES
    51   24   84 1    
    52   25   26 2    
    53   27   28 2    
    54   27   29 am   BACKBONE|DICT|INTERRES
    55   29   30 1    
    56   29   85 1    
    57   30   31 1    
    58   30   32 1    
    59   30   86 1    
    60   31   87 1    
    61   31   88 1    
    62   31   89 1    
    63   32   33 2    
    64   32   34 am   BACKBONE|DICT|INTERRES
    65   34   35 1    
    66   34   90 1    
    67   35   36 1    
    68   35   37 1    
    69   35   91 1    
    70   36   92 1    
    71   36   93 1    
    72   36   94 1    
    73   37   38 2    
    74   37   39 am   BACKBONE|DICT|INTERRES
    75   39   40 1    
    76   39   95 1    
    77   40   41 1    
    78   40   42 1    
    79   40   96 1    
    80   41   97 1    
    81   41   98 1    
    82   41   99 1    
    83   42   43 2    
    84   42   44 am   BACKBONE|DICT|INTERRES
    85   44   45 1    
    86   44  100 1    
    87   45   46 1    
    88   45   47 1    
    89   45  101 1    
    90   46  102 1    
    91   46  103 1    
    92   46  104 1    
    93   47   48 2    
    94   47   49 am   BACKBONE|DICT|INTERRES
    95   49   50 1    
    96   49  105 1    
    97   50   51 1    
    98   50   52 1    
    99   50  106 1    
   100   51  107 1    
   101   51  108 1    
   102   51  109 1    
   103   52   53 2    
   104   52   54 am   BACKBONE|DICT|INTERRES
   105   54   55 1    
   106   54  110 1    
   107   55   56 1    
   108   55   59 1    
   109   55  111 1    
   110   56   57 am   BACKBONE|DICT|INTERRES
   111   56   58 2    
   112   57  112 1    
   113   57  113 1    
   114   59   60 1    
   115   59  114 1    
   116   59  115 1    
   117   60   61 1    
   118   61  116 1    
   119   61  117 1    
@<TRIPOS>SUBSTRUCTURE
     1 UNK         1 GROUP             0       ****    0 ROOT    
