@<TRIPOS>MOLECULE
3R8
117   119    1
SMALL
USER_CHARGES


@<TRIPOS>ATOM
      1 CA         17.3245  -23.4953  -40.2003 C.3       0 UNK        -0.2013 
      2 C          17.1143  -23.6886  -41.6947 C.2       0 UNK         0.4866 
      3 O          16.6757  -22.7614  -42.3766 O.2       0 UNK        -0.5176 
      4 N          17.4140  -24.8886  -42.2068 N.am      1 UNK        -0.4884 
      5 CA         17.3209  -25.2405  -43.6278 C.3       1 UNK         0.0853 
      6 C6         17.4280  -26.7683  -43.8482 C.3       10 UNK        -0.0849 
      7 S7         16.0903  -27.7008  -43.0304 S.3       10 UNK        -0.2776 
      8 C8         15.7395  -28.9933  -44.2678 C.3       10 UNK         0.0316 
      9 C9         16.9671  -29.8482  -44.5535 C.ar      10 UNK        -0.0863 
     10 C10        17.4087  -30.7788  -43.6100 C.ar      10 UNK        -0.1009 
     11 C11        18.5444  -31.5550  -43.8553 C.ar      10 UNK        -0.0712 
     12 C12        19.2485  -31.3876  -45.0526 C.ar      10 UNK        -0.0894 
     13 C13        18.8112  -30.4672  -46.0129 C.ar      10 UNK        -0.0745 
     14 C14        17.6618  -29.7100  -45.7589 C.ar      10 UNK        -0.0972 
     15 C15        19.5568  -30.3350  -47.3394 C.3       10 UNK         0.0209 
     16 S16        19.8259  -28.6079  -47.8672 S.3       10 UNK        -0.2568 
     17 C17        21.0326  -28.0484  -46.6245 C.3       10 UNK        -0.0983 
     18 CA         21.4411  -26.5647  -46.8124 C.3       3 UNK         0.0876 
     19 N          20.2833  -25.6687  -46.7366 N.am      3 UNK        -0.4424 
     20 C          20.2920  -24.3536  -46.9941 C.2       2 UNK         0.4918 
     21 O          21.2700  -23.7474  -47.4316 O.2       2 UNK        -0.4875 
     22 CA         18.9984  -23.5724  -46.6863 C.3       2 UNK         0.0481 
     23 CB         18.2221  -23.2973  -47.9841 C.3       2 UNK        -0.1831 
     24 N          18.1025  -24.2195  -45.7163 N.am      2 UNK        -0.4498 
     25 C          18.4146  -24.5280  -44.4480 C.2       1 UNK         0.5027 
     26 O          19.5306  -24.3456  -43.9526 O.2       1 UNK        -0.4969 
     27 C          22.5408  -26.2068  -45.7891 C.2       3 UNK         0.5005 
     28 O          23.7103  -26.4918  -46.0511 O.2       3 UNK        -0.5279 
     29 N          22.1470  -25.6306  -44.6375 N.am      4 UNK        -0.4463 
     30 CA         22.9838  -25.3162  -43.4693 C.3       4 UNK         0.0283 
     31 CB         23.9723  -24.1772  -43.7959 C.3       4 UNK        -0.1875 
     32 C          23.6781  -26.5570  -42.8655 C.2       4 UNK         0.4949 
     33 O          24.7762  -26.4453  -42.3187 O.2       4 UNK        -0.5039 
     34 N          23.0272  -27.7221  -42.9967 N.am      5 UNK        -0.4663 
     35 CA         23.5439  -29.0314  -42.5961 C.3       5 UNK         0.0242 
     36 CB         22.6670  -30.1264  -43.2263 C.3       5 UNK        -0.1982 
     37 C          23.6483  -29.1986  -41.0724 C.2       5 UNK         0.5017 
     38 O          24.6576  -29.7174  -40.5929 O.2       5 UNK        -0.5012 
     39 N          22.6177  -28.7363  -40.3471 N.am      6 UNK        -0.4439 
     40 CA         22.4947  -28.7379  -38.8843 C.3       6 UNK         0.0297 
     41 CB         23.3997  -27.6417  -38.2768 C.3       6 UNK        -0.2006 
     42 C          22.7212  -30.1414  -38.2863 C.2       6 UNK         0.4892 
     43 O          21.8803  -31.0192  -38.4804 O.2       6 UNK        -0.5089 
     44 N          23.8592  -30.3419  -37.6068 N.am      7 UNK        -0.4243 
     45 CA         24.2836  -31.6149  -37.0176 C.3       7 UNK         0.0196 
     46 CB         25.5678  -31.3901  -36.2036 C.3       7 UNK        -0.2007 
     47 C          24.4883  -32.7482  -38.0402 C.2       7 UNK         0.5020 
     48 O          24.3485  -33.9148  -37.6707 O.2       7 UNK        -0.5147 
     49 N          24.7773  -32.4083  -39.3066 N.am      8 UNK        -0.4734 
     50 CA         24.9267  -33.3741  -40.4022 C.3       8 UNK         0.0238 
     51 CB         25.5924  -32.6978  -41.6114 C.3       8 UNK        -0.1912 
     52 C          23.6100  -34.0648  -40.8076 C.2       8 UNK         0.5038 
     53 O          23.6675  -35.0916  -41.4857 O.2       8 UNK        -0.5046 
     54 N          22.4611  -33.5274  -40.3707 N.am      9 UNK        -0.4200 
     55 CA         21.1526  -34.1935  -40.4597 C.3       9 UNK         0.0839 
     56 C          20.9914  -35.4027  -39.4898 C.2       9 UNK         0.5513 
     57 N          21.8665  -35.6053  -38.5099 N.am      9 UNK        -0.7519 
     58 O          20.0504  -36.1785  -39.6353 O.2       9 UNK        -0.4960 
     59 C59        19.9750  -33.2003  -40.2834 C.3       10 UNK        -0.0876 
     60 S60        19.9746  -31.8473  -41.5059 S.3       10 UNK        -0.2414 
     61 C61        18.9815  -32.5927  -42.8331 C.3       10 UNK         0.0169 
     62 H62        18.0413  -22.6938  -40.0233 H         1 UNK         0.0903 
     63 H63        16.3843  -23.2241  -39.7209 H         1 UNK         0.0903 
     64 H64        17.7011  -24.3988  -39.7209 H         1 UNK         0.0903 
     65 H65        17.7716  -25.6143  -41.6024 H         1 UNK         0.3096 
     66 H66        16.3474  -24.9024  -43.9910 H         1 UNK         0.1121 
     67 H67        17.3988  -26.9901  -44.9163 H         1 UNK         0.0849 
     68 H68        18.3838  -27.1520  -43.4848 H         1 UNK         0.0849 
     69 H69        14.9328  -29.6288  -43.8994 H         1 UNK         0.0865 
     70 H70        15.3664  -28.5283  -45.1817 H         1 UNK         0.0865 
     71 H71        16.8693  -30.8957  -42.6797 H         1 UNK         0.1346 
     72 H72        20.1268  -31.9893  -45.2428 H         1 UNK         0.1412 
     73 H73        17.3117  -29.0061  -46.5013 H         1 UNK         0.1426 
     74 H74        18.9790  -30.8464  -48.1102 H         1 UNK         0.0716 
     75 H75        20.5227  -30.8405  -47.2933 H         1 UNK         0.0716 
     76 H76        21.9072  -28.6988  -46.6940 H         1 UNK         0.0695 
     77 H77        20.6067  -28.2090  -45.6318 H         1 UNK         0.0695 
     78 H78        21.8801  -26.4499  -47.8060 H         1 UNK         0.0983 
     79 H79        19.4183  -26.0901  -46.4362 H         1 UNK         0.3095 
     80 H80        19.2981  -22.6130  -46.2598 H         1 UNK         0.0454 
     81 H81        18.8511  -22.7872  -48.7153 H         1 UNK         0.0851 
     82 H82        17.3583  -22.6573  -47.8040 H         1 UNK         0.0851 
     83 H83        17.8686  -24.2194  -48.4472 H         1 UNK         0.0851 
     84 H84        17.1685  -24.4202  -46.0457 H         1 UNK         0.2976 
     85 H85        21.1673  -25.3809  -44.5356 H         1 UNK         0.3116 
     86 H86        22.3021  -24.9488  -42.7007 H         1 UNK         0.0646 
     87 H87        24.7303  -24.4922  -44.5137 H         1 UNK         0.0847 
     88 H88        23.4562  -23.3116  -44.2110 H         1 UNK         0.0847 
     89 H89        24.4944  -23.8421  -42.8989 H         1 UNK         0.0847 
     90 H90        22.1319  -27.7094  -43.4612 H         1 UNK         0.3040 
     91 H91        24.5547  -29.1332  -42.9979 H         1 UNK         0.1015 
     92 H92        22.9262  -31.1172  -42.8519 H         1 UNK         0.0786 
     93 H93        22.7843  -30.1495  -44.3099 H         1 UNK         0.0786 
     94 H94        21.6099  -29.9672  -43.0138 H         1 UNK         0.0786 
     95 H95        21.8276  -28.3616  -40.8521 H         1 UNK         0.3172 
     96 H96        21.4604  -28.4747  -38.6577 H         1 UNK         0.0595 
     97 H97        24.4521  -27.7868  -38.5237 H         1 UNK         0.0839 
     98 H98        23.3104  -27.6107  -37.1899 H         1 UNK         0.0839 
     99 H99        23.1148  -26.6562  -38.6455 H         1 UNK         0.0839 
    100 H100       24.5059  -29.5704  -37.5309 H         1 UNK         0.2998 
    101 H101       23.4958  -31.9378  -36.3337 H         1 UNK         0.0822 
    102 H102       25.8950  -32.3156  -35.7271 H         1 UNK         0.0787 
    103 H103       26.3876  -31.0398  -36.8322 H         1 UNK         0.0787 
    104 H104       25.4135  -30.6576  -35.4110 H         1 UNK         0.0787 
    105 H105       24.8408  -31.4241  -39.5539 H         1 UNK         0.3055 
    106 H106       25.5968  -34.1636  -40.0541 H         1 UNK         0.1106 
    107 H107       24.9597  -31.9255  -42.0449 H         1 UNK         0.0828 
    108 H108       26.5424  -32.2385  -41.3379 H         1 UNK         0.0828 
    109 H109       25.7992  -33.4243  -42.3984 H         1 UNK         0.0828 
    110 H110       22.4887  -32.6795  -39.8176 H         1 UNK         0.2931 
    111 H111       21.0715  -34.6084  -41.4663 H         1 UNK         0.0412 
    112 H112       22.6506  -34.9806  -38.3666 H         1 UNK         0.3472 
    113 H113       21.7418  -36.3966  -37.8983 H         1 UNK         0.3472 
    114 H114       19.0172  -33.7211  -40.3384 H         1 UNK         0.0970 
    115 H115       20.0075  -32.7537  -39.2882 H         1 UNK         0.0970 
    116 H116       19.5601  -33.3839  -43.3122 H         1 UNK         0.0612 
    117 H117       18.0974  -33.0702  -42.4080 H         1 UNK         0.0612 
@<TRIPOS>BOND
     1    1    2 1    
     2    1   62 1    
     3    1   63 1    
     4    1   64 1    
     5    2    3 2    
     6    2    4 am   BACKBONE|DICT|INTERRES
     7    4    5 1    
     8    4   65 1    
     9    5    6 1    
    10    5   25 1    
    11    5   66 1    
    12    6    7 1    
    13    6   67 1    
    14    6   68 1    
    15    7    8 1    
    16    8    9 1    
    17    8   69 1    
    18    8   70 1    
    19    9   10 ar   
    20    9   14 ar   
    21   10   11 ar   
    22   10   71 1    
    23   11   12 ar   
    24   11   61 1    
    25   12   13 ar   
    26   12   72 1    
    27   13   14 ar   
    28   13   15 1    
    29   14   73 1    
    30   15   16 1    
    31   15   74 1    
    32   15   75 1    
    33   16   17 1    
    34   17   18 1    
    35   17   76 1    
    36   17   77 1    
    37   18   19 1    
    38   18   27 1    
    39   18   78 1    
    40   19   20 am   BACKBONE|DICT|INTERRES
    41   19   79 1    
    42   20   21 2    
    43   20   22 1    
    44   22   23 1    
    45   22   24 1    
    46   22   80 1    
    47   23   81 1    
    48   23   82 1    
    49   23   83 1    
    50   24   25 am   BACKBONE|DICT|INTERRES
    51   24   84 1    
    52   25   26 2    
    53   27   28 2    
    54   27   29 am   BACKBONE|DICT|INTERRES
    55   29   30 1    
    56   29   85 1    
    57   30   31 1    
    58   30   32 1    
    59   30   86 1    
    60   31   87 1    
    61   31   88 1    
    62   31   89 1    
    63   32   33 2    
    64   32   34 am   BACKBONE|DICT|INTERRES
    65   34   35 1    
    66   34   90 1    
    67   35   36 1    
    68   35   37 1    
    69   35   91 1    
    70   36   92 1    
    71   36   93 1    
    72   36   94 1    
    73   37   38 2    
    74   37   39 am   BACKBONE|DICT|INTERRES
    75   39   40 1    
    76   39   95 1    
    77   40   41 1    
    78   40   42 1    
    79   40   96 1    
    80   41   97 1    
    81   41   98 1    
    82   41   99 1    
    83   42   43 2    
    84   42   44 am   BACKBONE|DICT|INTERRES
    85   44   45 1    
    86   44  100 1    
    87   45   46 1    
    88   45   47 1    
    89   45  101 1    
    90   46  102 1    
    91   46  103 1    
    92   46  104 1    
    93   47   48 2    
    94   47   49 am   BACKBONE|DICT|INTERRES
    95   49   50 1    
    96   49  105 1    
    97   50   51 1    
    98   50   52 1    
    99   50  106 1    
   100   51  107 1    
   101   51  108 1    
   102   51  109 1    
   103   52   53 2    
   104   52   54 am   BACKBONE|DICT|INTERRES
   105   54   55 1    
   106   54  110 1    
   107   55   56 1    
   108   55   59 1    
   109   55  111 1    
   110   56   57 am   BACKBONE|DICT|INTERRES
   111   56   58 2    
   112   57  112 1    
   113   57  113 1    
   114   59   60 1    
   115   59  114 1    
   116   59  115 1    
   117   60   61 1    
   118   61  116 1    
   119   61  117 1    
@<TRIPOS>SUBSTRUCTURE
     1 UNK         1 GROUP             0       ****    0 ROOT    
