@<TRIPOS>MOLECULE
3R8
117   119    1
SMALL
USER_CHARGES


@<TRIPOS>ATOM
      1 CA         16.3950  -23.1522  -48.5829 C.3       0 UNK        -0.2013 
      2 C          17.4127  -24.2033  -48.1661 C.2       0 UNK         0.4866 
      3 O          18.6020  -24.0472  -48.4427 O.2       0 UNK        -0.5176 
      4 N          16.9568  -25.2712  -47.4969 N.am      1 UNK        -0.4884 
      5 CA         17.7953  -26.3834  -47.0232 C.3       1 UNK         0.0853 
      6 C6         16.9716  -27.6927  -46.8987 C.3       10 UNK        -0.0849 
      7 S7         17.9597  -29.1692  -47.3093 S.3       10 UNK        -0.2776 
      8 C8         16.8852  -30.4967  -46.6873 C.3       10 UNK         0.0316 
      9 C9         17.1514  -30.8127  -45.2221 C.ar      10 UNK        -0.0863 
     10 C10        18.1613  -31.7179  -44.8806 C.ar      10 UNK        -0.1009 
     11 C11        18.3636  -32.0871  -43.5481 C.ar      10 UNK        -0.0712 
     12 C12        17.5463  -31.5398  -42.5536 C.ar      10 UNK        -0.0894 
     13 C13        16.5398  -30.6242  -42.8784 C.ar      10 UNK        -0.0745 
     14 C14        16.3527  -30.2584  -44.2157 C.ar      10 UNK        -0.0972 
     15 C15        15.5970  -30.1047  -41.7981 C.3       10 UNK         0.0209 
     16 S16        16.4560  -29.2353  -40.4460 S.3       10 UNK        -0.2568 
     17 C17        16.8373  -27.6189  -41.2002 C.3       10 UNK        -0.0983 
     18 CA         18.3455  -27.4638  -41.5314 C.3       3 UNK         0.0876 
     19 N          18.5841  -26.4976  -42.6068 N.am      3 UNK        -0.4424 
     20 C          18.3765  -25.1760  -42.5673 C.2       2 UNK         0.4918 
     21 O          17.8947  -24.5793  -41.6043 O.2       2 UNK        -0.4875 
     22 CA         18.7649  -24.3733  -43.8218 C.3       2 UNK         0.0481 
     23 CB         20.2904  -24.1589  -43.8888 C.3       2 UNK        -0.1831 
     24 N          18.2319  -24.9170  -45.0802 N.am      2 UNK        -0.4498 
     25 C          18.5450  -26.0610  -45.7099 C.2       1 UNK         0.5027 
     26 O          19.3687  -26.8668  -45.2770 O.2       1 UNK        -0.4969 
     27 C          19.2501  -27.1620  -40.3125 C.2       3 UNK         0.5005 
     28 O          18.7712  -27.0129  -39.1853 O.2       3 UNK        -0.5279 
     29 N          20.5565  -27.0381  -40.5844 N.am      4 UNK        -0.4463 
     30 CA         21.6210  -26.8577  -39.5975 C.3       4 UNK         0.0283 
     31 CB         22.8154  -26.1851  -40.3031 C.3       4 UNK        -0.1875 
     32 C          22.0141  -28.2011  -38.9476 C.2       4 UNK         0.4949 
     33 O          21.2966  -29.1952  -39.0832 O.2       4 UNK        -0.5039 
     34 N          23.1658  -28.2189  -38.2606 N.am      5 UNK        -0.4663 
     35 CA         23.8039  -29.4319  -37.7360 C.3       5 UNK         0.0242 
     36 CB         25.0696  -29.0395  -36.9578 C.3       5 UNK        -0.1982 
     37 C          24.1559  -30.4118  -38.8689 C.2       5 UNK         0.5017 
     38 O          24.5175  -29.9605  -39.9578 O.2       5 UNK        -0.5012 
     39 N          24.0542  -31.7188  -38.5902 N.am      6 UNK        -0.4439 
     40 CA         24.0867  -32.8280  -39.5573 C.3       6 UNK         0.0297 
     41 CB         23.9315  -34.1559  -38.7981 C.3       6 UNK        -0.2006 
     42 C          25.2994  -32.8972  -40.5066 C.2       6 UNK         0.4892 
     43 O          25.1915  -33.5243  -41.5608 O.2       6 UNK        -0.5089 
     44 N          26.4145  -32.2493  -40.1415 N.am      7 UNK        -0.4243 
     45 CA         27.5925  -32.0680  -40.9953 C.3       7 UNK         0.0196 
     46 CB         28.7326  -31.4649  -40.1589 C.3       7 UNK        -0.2007 
     47 C          27.3191  -31.1977  -42.2389 C.2       7 UNK         0.5020 
     48 O          27.9801  -31.3901  -43.2599 O.2       7 UNK        -0.5147 
     49 N          26.3578  -30.2708  -42.1352 N.am      8 UNK        -0.4734 
     50 CA         25.8801  -29.4218  -43.2286 C.3       8 UNK         0.0238 
     51 CB         26.0153  -27.9450  -42.8203 C.3       8 UNK        -0.1912 
     52 C          24.4219  -29.7507  -43.5827 C.2       8 UNK         0.5038 
     53 O          24.0958  -29.8389  -44.7667 O.2       8 UNK        -0.5046 
     54 N          23.5851  -29.9423  -42.5541 N.am      9 UNK        -0.4200 
     55 CA         22.1436  -30.2085  -42.6283 C.3       9 UNK         0.0839 
     56 C          21.3561  -29.0542  -43.3167 C.2       9 UNK         0.5513 
     57 N          20.2942  -29.3244  -44.0597 N.am      9 UNK        -0.7519 
     58 O          21.6670  -27.8817  -43.1173 O.2       9 UNK        -0.4960 
     59 C59        21.8396  -31.6517  -43.1369 C.3       10 UNK        -0.0876 
     60 S60        20.6706  -32.5191  -42.0375 S.3       10 UNK        -0.2414 
     61 C61        19.4071  -33.1373  -43.1914 C.3       10 UNK         0.0169 
     62 H62        16.3993  -23.0355  -49.6663 H         1 UNK         0.0903 
     63 H63        15.3836  -23.4173  -48.2752 H         1 UNK         0.0903 
     64 H64        16.6443  -22.1900  -48.1360 H         1 UNK         0.0903 
     65 H65        15.9685  -25.3463  -47.2968 H         1 UNK         0.3096 
     66 H66        18.5711  -26.5404  -47.7767 H         1 UNK         0.1121 
     67 H67        16.5301  -27.7980  -45.9058 H         1 UNK         0.0849 
     68 H68        16.1326  -27.6821  -47.5967 H         1 UNK         0.0849 
     69 H69        15.8375  -30.2339  -46.8425 H         1 UNK         0.0865 
     70 H70        17.0577  -31.3916  -47.2872 H         1 UNK         0.0865 
     71 H71        18.7688  -32.1577  -45.6603 H         1 UNK         0.1346 
     72 H72        17.6810  -31.8439  -41.5244 H         1 UNK         0.1412 
     73 H73        15.5581  -29.5737  -44.4788 H         1 UNK         0.1426 
     74 H74        14.8320  -29.4513  -42.2206 H         1 UNK         0.0716 
     75 H75        15.0633  -30.9556  -41.3729 H         1 UNK         0.0716 
     76 H76        16.4916  -26.8226  -40.5388 H         1 UNK         0.0695 
     77 H77        16.2462  -27.5190  -42.1117 H         1 UNK         0.0695 
     78 H78        18.6879  -28.4209  -41.9280 H         1 UNK         0.0983 
     79 H79        18.9990  -26.8642  -43.4599 H         1 UNK         0.3095 
     80 H80        18.3069  -23.3884  -43.7177 H         1 UNK         0.0454 
     81 H81        20.6504  -23.6550  -42.9909 H         1 UNK         0.0851 
     82 H82        20.5663  -23.5385  -44.7413 H         1 UNK         0.0851 
     83 H83        20.8372  -25.0993  -43.9683 H         1 UNK         0.0851 
     84 H84        17.5180  -24.3517  -45.5181 H         1 UNK         0.2976 
     85 H85        20.8676  -27.2011  -41.5391 H         1 UNK         0.3116 
     86 H86        21.2641  -26.1943  -38.8072 H         1 UNK         0.0646 
     87 H87        22.5053  -25.2850  -40.8345 H         1 UNK         0.0847 
     88 H88        23.5857  -25.8810  -39.5943 H         1 UNK         0.0847 
     89 H89        23.2801  -26.8538  -41.0292 H         1 UNK         0.0847 
     90 H90        23.7071  -27.3688  -38.2060 H         1 UNK         0.3040 
     91 H91        23.0990  -29.9144  -37.0553 H         1 UNK         0.1015 
     92 H92        25.8013  -28.5463  -37.5995 H         1 UNK         0.0786 
     93 H93        25.5535  -29.9174  -36.5273 H         1 UNK         0.0786 
     94 H94        24.8365  -28.3648  -36.1337 H         1 UNK         0.0786 
     95 H95        23.7922  -31.9755  -37.6489 H         1 UNK         0.3172 
     96 H96        23.2091  -32.7033  -40.1949 H         1 UNK         0.0595 
     97 H97        24.7534  -34.3193  -38.0998 H         1 UNK         0.0839 
     98 H98        23.9167  -35.0023  -39.4867 H         1 UNK         0.0839 
     99 H99        22.9983  -34.1876  -38.2355 H         1 UNK         0.0839 
    100 H100       26.4102  -31.7612  -39.2579 H         1 UNK         0.2998 
    101 H101       27.9067  -33.0531  -41.3469 H         1 UNK         0.0822 
    102 H102       28.9924  -32.1085  -39.3182 H         1 UNK         0.0787 
    103 H103       29.6340  -31.3410  -40.7609 H         1 UNK         0.0787 
    104 H104       28.4675  -30.4835  -39.7633 H         1 UNK         0.0787 
    105 H105       25.8478  -30.2044  -41.2578 H         1 UNK         0.3055 
    106 H106       26.4775  -29.5826  -44.1290 H         1 UNK         0.1106 
    107 H107       27.0587  -27.6765  -42.6553 H         1 UNK         0.0828 
    108 H108       25.6297  -27.2862  -43.5997 H         1 UNK         0.0828 
    109 H109       25.4659  -27.7254  -41.9042 H         1 UNK         0.0828 
    110 H110       23.9475  -29.8418  -41.6087 H         1 UNK         0.2931 
    111 H111       21.8345  -30.1460  -41.5849 H         1 UNK         0.0412 
    112 H112       19.8461  -28.5571  -44.5495 H         1 UNK         0.3472 
    113 H113       19.9460  -30.2637  -44.1712 H         1 UNK         0.3472 
    114 H114       21.4991  -31.6652  -44.1731 H         1 UNK         0.0970 
    115 H115       22.7501  -32.2537  -43.1370 H         1 UNK         0.0970 
    116 H116       19.8931  -33.5358  -44.0834 H         1 UNK         0.0612 
    117 H117       18.8986  -33.9805  -42.7222 H         1 UNK         0.0612 
@<TRIPOS>BOND
     1    1    2 1    
     2    1   62 1    
     3    1   63 1    
     4    1   64 1    
     5    2    3 2    
     6    2    4 am   BACKBONE|DICT|INTERRES
     7    4    5 1    
     8    4   65 1    
     9    5    6 1    
    10    5   25 1    
    11    5   66 1    
    12    6    7 1    
    13    6   67 1    
    14    6   68 1    
    15    7    8 1    
    16    8    9 1    
    17    8   69 1    
    18    8   70 1    
    19    9   10 ar   
    20    9   14 ar   
    21   10   11 ar   
    22   10   71 1    
    23   11   12 ar   
    24   11   61 1    
    25   12   13 ar   
    26   12   72 1    
    27   13   14 ar   
    28   13   15 1    
    29   14   73 1    
    30   15   16 1    
    31   15   74 1    
    32   15   75 1    
    33   16   17 1    
    34   17   18 1    
    35   17   76 1    
    36   17   77 1    
    37   18   19 1    
    38   18   27 1    
    39   18   78 1    
    40   19   20 am   BACKBONE|DICT|INTERRES
    41   19   79 1    
    42   20   21 2    
    43   20   22 1    
    44   22   23 1    
    45   22   24 1    
    46   22   80 1    
    47   23   81 1    
    48   23   82 1    
    49   23   83 1    
    50   24   25 am   BACKBONE|DICT|INTERRES
    51   24   84 1    
    52   25   26 2    
    53   27   28 2    
    54   27   29 am   BACKBONE|DICT|INTERRES
    55   29   30 1    
    56   29   85 1    
    57   30   31 1    
    58   30   32 1    
    59   30   86 1    
    60   31   87 1    
    61   31   88 1    
    62   31   89 1    
    63   32   33 2    
    64   32   34 am   BACKBONE|DICT|INTERRES
    65   34   35 1    
    66   34   90 1    
    67   35   36 1    
    68   35   37 1    
    69   35   91 1    
    70   36   92 1    
    71   36   93 1    
    72   36   94 1    
    73   37   38 2    
    74   37   39 am   BACKBONE|DICT|INTERRES
    75   39   40 1    
    76   39   95 1    
    77   40   41 1    
    78   40   42 1    
    79   40   96 1    
    80   41   97 1    
    81   41   98 1    
    82   41   99 1    
    83   42   43 2    
    84   42   44 am   BACKBONE|DICT|INTERRES
    85   44   45 1    
    86   44  100 1    
    87   45   46 1    
    88   45   47 1    
    89   45  101 1    
    90   46  102 1    
    91   46  103 1    
    92   46  104 1    
    93   47   48 2    
    94   47   49 am   BACKBONE|DICT|INTERRES
    95   49   50 1    
    96   49  105 1    
    97   50   51 1    
    98   50   52 1    
    99   50  106 1    
   100   51  107 1    
   101   51  108 1    
   102   51  109 1    
   103   52   53 2    
   104   52   54 am   BACKBONE|DICT|INTERRES
   105   54   55 1    
   106   54  110 1    
   107   55   56 1    
   108   55   59 1    
   109   55  111 1    
   110   56   57 am   BACKBONE|DICT|INTERRES
   111   56   58 2    
   112   57  112 1    
   113   57  113 1    
   114   59   60 1    
   115   59  114 1    
   116   59  115 1    
   117   60   61 1    
   118   61  116 1    
   119   61  117 1    
@<TRIPOS>SUBSTRUCTURE
     1 UNK         1 GROUP             0       ****    0 ROOT    
