@<TRIPOS>MOLECULE
3R8
117   119    1
SMALL
USER_CHARGES


@<TRIPOS>ATOM
      1 CA         16.9851  -28.4060  -41.5292 C.3       0 UNK        -0.2013 
      2 C          16.4340  -27.4086  -42.5322 C.2       0 UNK         0.4866 
      3 O          15.8548  -26.3978  -42.1332 O.2       0 UNK        -0.5176 
      4 N          16.6093  -27.6703  -43.8341 N.am      1 UNK        -0.4884 
      5 CA         16.0286  -26.8946  -44.9416 C.3       1 UNK         0.0853 
      6 C6         15.7848  -27.7587  -46.2105 C.3       10 UNK        -0.0849 
      7 S7         15.0063  -29.3740  -45.8424 S.3       10 UNK        -0.2776 
      8 C8         16.2296  -30.5700  -46.4805 C.3       10 UNK         0.0316 
      9 C9         17.6270  -30.3732  -45.9021 C.ar      10 UNK        -0.0863 
     10 C10        17.9362  -30.8099  -44.6089 C.ar      10 UNK        -0.1009 
     11 C11        19.2292  -30.6489  -44.0950 C.ar      10 UNK        -0.0712 
     12 C12        20.2126  -30.0556  -44.8910 C.ar      10 UNK        -0.0894 
     13 C13        19.9084  -29.5864  -46.1706 C.ar      10 UNK        -0.0745 
     14 C14        18.6200  -29.7654  -46.6769 C.ar      10 UNK        -0.0972 
     15 C15        20.9635  -28.8752  -47.0050 C.3       10 UNK         0.0209 
     16 S16        20.8272  -27.0640  -46.8513 S.3       10 UNK        -0.2568 
     17 C17        21.5480  -26.8129  -45.1981 C.3       10 UNK        -0.0983 
     18 CA         21.3301  -25.3879  -44.6352 C.3       3 UNK         0.0876 
     19 N          19.9109  -25.0381  -44.5113 N.am      3 UNK        -0.4424 
     20 C          19.4466  -23.7984  -44.2999 C.2       2 UNK         0.4918 
     21 O          20.1780  -22.8113  -44.2115 O.2       2 UNK        -0.4875 
     22 CA         17.9250  -23.6048  -44.1274 C.3       2 UNK         0.0481 
     23 CB         17.3737  -22.5289  -45.0861 C.3       2 UNK        -0.1831 
     24 N          17.1262  -24.8371  -44.1856 N.am      2 UNK        -0.4498 
     25 C          16.8610  -25.6249  -45.2377 C.2       1 UNK         0.5027 
     26 O          17.2757  -25.4041  -46.3759 O.2       1 UNK        -0.4969 
     27 C          22.0620  -25.2559  -43.2862 C.2       3 UNK         0.5005 
     28 O          23.1243  -24.6349  -43.2290 O.2       3 UNK        -0.5279 
     29 N          21.4833  -25.8735  -42.2408 N.am      4 UNK        -0.4463 
     30 CA         22.0267  -26.0226  -40.8813 C.3       4 UNK         0.0283 
     31 CB         22.0694  -24.6604  -40.1578 C.3       4 UNK        -0.1875 
     32 C          23.3819  -26.7650  -40.8341 C.2       4 UNK         0.4949 
     33 O          24.1789  -26.5358  -39.9227 O.2       4 UNK        -0.5039 
     34 N          23.6155  -27.6422  -41.8160 N.am      5 UNK        -0.4663 
     35 CA         24.8189  -28.4427  -42.0122 C.3       5 UNK         0.0242 
     36 CB         25.9606  -27.5538  -42.5438 C.3       5 UNK        -0.1982 
     37 C          24.4764  -29.5498  -43.0258 C.2       5 UNK         0.5017 
     38 O          23.5849  -29.3331  -43.8478 O.2       5 UNK        -0.5012 
     39 N          25.1644  -30.7007  -43.0379 N.am      6 UNK        -0.4439 
     40 CA         26.1899  -31.1620  -42.0970 C.3       6 UNK         0.0297 
     41 CB         27.1476  -32.1151  -42.8411 C.3       6 UNK        -0.2006 
     42 C          25.5379  -31.7911  -40.8484 C.2       6 UNK         0.4892 
     43 O          24.5371  -31.2638  -40.3626 O.2       6 UNK        -0.5089 
     44 N          26.0870  -32.9073  -40.3478 N.am      7 UNK        -0.4243 
     45 CA         25.6704  -33.6075  -39.1214 C.3       7 UNK         0.0196 
     46 CB         26.5830  -34.8279  -38.9145 C.3       7 UNK        -0.2007 
     47 C          24.1871  -34.0304  -39.0518 C.2       7 UNK         0.5020 
     48 O          23.6957  -34.3175  -37.9601 O.2       7 UNK        -0.5147 
     49 N          23.4983  -34.0495  -40.2001 N.am      8 UNK        -0.4734 
     50 CA         22.0591  -34.2784  -40.3207 C.3       8 UNK         0.0238 
     51 CB         21.7083  -34.4763  -41.8045 C.3       8 UNK        -0.1912 
     52 C          21.1869  -33.1664  -39.7043 C.2       8 UNK         0.5038 
     53 O          20.0634  -33.4699  -39.2998 O.2       8 UNK        -0.5046 
     54 N          21.6860  -31.9219  -39.6405 N.am      9 UNK        -0.4200 
     55 CA         20.9463  -30.7745  -39.0820 C.3       9 UNK         0.0839 
     56 C          21.8114  -29.5877  -38.5719 C.2       9 UNK         0.5513 
     57 N          23.1288  -29.5921  -38.7085 N.am      9 UNK        -0.7519 
     58 O          21.2711  -28.6406  -38.0062 O.2       9 UNK        -0.4960 
     59 C59        19.7637  -30.3104  -39.9789 C.3       10 UNK        -0.0876 
     60 S60        20.2519  -29.7751  -41.6577 S.3       10 UNK        -0.2414 
     61 C61        19.5697  -31.1210  -42.6868 C.3       10 UNK         0.0169 
     62 H62        17.2811  -29.3375  -42.0089 H         1 UNK         0.0903 
     63 H63        17.8511  -27.9834  -41.0215 H         1 UNK         0.0903 
     64 H64        16.2309  -28.6414  -40.7790 H         1 UNK         0.0903 
     65 H65        17.1049  -28.5064  -44.1152 H         1 UNK         0.3096 
     66 H66        15.0469  -26.5401  -44.6180 H         1 UNK         0.1121 
     67 H67        15.1306  -27.2223  -46.9002 H         1 UNK         0.0849 
     68 H68        16.7119  -27.9138  -46.7598 H         1 UNK         0.0849 
     69 H69        15.8848  -31.5798  -46.2534 H         1 UNK         0.0865 
     70 H70        16.2541  -30.5011  -47.5694 H         1 UNK         0.0865 
     71 H71        17.1689  -31.2791  -44.0078 H         1 UNK         0.1346 
     72 H72        21.2119  -29.9347  -44.4983 H         1 UNK         0.1412 
     73 H73        18.3889  -29.4152  -47.6739 H         1 UNK         0.1426 
     74 H74        20.8482  -29.1504  -48.0544 H         1 UNK         0.0716 
     75 H75        21.9657  -29.1944  -46.7134 H         1 UNK         0.0716 
     76 H76        22.6145  -27.0381  -45.2681 H         1 UNK         0.0695 
     77 H77        21.1247  -27.5493  -44.5154 H         1 UNK         0.0695 
     78 H78        21.7893  -24.6778  -45.3270 H         1 UNK         0.0983 
     79 H79        19.2462  -25.7868  -44.6334 H         1 UNK         0.3095 
     80 H80        17.7923  -23.2287  -43.1121 H         1 UNK         0.0454 
     81 H81        17.8632  -21.5689  -44.9182 H         1 UNK         0.0851 
     82 H82        16.3049  -22.3745  -44.9390 H         1 UNK         0.0851 
     83 H83        17.5356  -22.7918  -46.1317 H         1 UNK         0.0851 
     84 H84        16.7401  -25.1485  -43.2967 H         1 UNK         0.2976 
     85 H85        20.6079  -26.3494  -42.4078 H         1 UNK         0.3116 
     86 H86        21.3227  -26.6588  -40.3423 H         1 UNK         0.0646 
     87 H87        22.8077  -23.9909  -40.6001 H         1 UNK         0.0847 
     88 H88        21.1009  -24.1619  -40.1912 H         1 UNK         0.0847 
     89 H89        22.3322  -24.7842  -39.1065 H         1 UNK         0.0847 
     90 H90        22.8997  -27.8149  -42.5109 H         1 UNK         0.3040 
     91 H91        25.0983  -28.8725  -41.0508 H         1 UNK         0.1015 
     92 H92        26.2364  -26.7842  -41.8229 H         1 UNK         0.0786 
     93 H93        26.8575  -28.1389  -42.7485 H         1 UNK         0.0786 
     94 H94        25.6783  -27.0547  -43.4718 H         1 UNK         0.0786 
     95 H95        24.8881  -31.3801  -43.7309 H         1 UNK         0.3172 
     96 H96        26.7829  -30.3136  -41.7542 H         1 UNK         0.0595 
     97 H97        26.6502  -33.0335  -43.1566 H         1 UNK         0.0839 
     98 H98        28.0017  -32.3907  -42.2212 H         1 UNK         0.0839 
     99 H99        27.5552  -31.6400  -43.7340 H         1 UNK         0.0839 
    100 H100       26.8949  -33.2865  -40.8205 H         1 UNK         0.2998 
    101 H101       25.8329  -32.9166  -38.2915 H         1 UNK         0.0822 
    102 H102       26.3299  -35.3562  -37.9940 H         1 UNK         0.0787 
    103 H103       27.6300  -34.5342  -38.8368 H         1 UNK         0.0787 
    104 H104       26.4924  -35.5414  -39.7347 H         1 UNK         0.0787 
    105 H105       23.9906  -33.7947  -41.0435 H         1 UNK         0.3055 
    106 H106       21.8221  -35.2014  -39.7866 H         1 UNK         0.1106 
    107 H107       21.9921  -33.6117  -42.4054 H         1 UNK         0.0828 
    108 H108       22.2118  -35.3508  -42.2171 H         1 UNK         0.0828 
    109 H109       20.6363  -34.6302  -41.9376 H         1 UNK         0.0828 
    110 H110       22.6239  -31.7374  -39.9789 H         1 UNK         0.2931 
    111 H111       20.4962  -31.1449  -38.1586 H         1 UNK         0.0412 
    112 H112       23.6196  -30.3133  -39.2313 H         1 UNK         0.3472 
    113 H113       23.6461  -28.7989  -38.3646 H         1 UNK         0.3472 
    114 H114       19.0231  -31.1071  -40.0447 H         1 UNK         0.0970 
    115 H115       19.2311  -29.4844  -39.5046 H         1 UNK         0.0970 
    116 H116       20.2989  -31.9286  -42.7430 H         1 UNK         0.0612 
    117 H117       18.6804  -31.5381  -42.2133 H         1 UNK         0.0612 
@<TRIPOS>BOND
     1    1    2 1    
     2    1   62 1    
     3    1   63 1    
     4    1   64 1    
     5    2    3 2    
     6    2    4 am   BACKBONE|DICT|INTERRES
     7    4    5 1    
     8    4   65 1    
     9    5    6 1    
    10    5   25 1    
    11    5   66 1    
    12    6    7 1    
    13    6   67 1    
    14    6   68 1    
    15    7    8 1    
    16    8    9 1    
    17    8   69 1    
    18    8   70 1    
    19    9   10 ar   
    20    9   14 ar   
    21   10   11 ar   
    22   10   71 1    
    23   11   12 ar   
    24   11   61 1    
    25   12   13 ar   
    26   12   72 1    
    27   13   14 ar   
    28   13   15 1    
    29   14   73 1    
    30   15   16 1    
    31   15   74 1    
    32   15   75 1    
    33   16   17 1    
    34   17   18 1    
    35   17   76 1    
    36   17   77 1    
    37   18   19 1    
    38   18   27 1    
    39   18   78 1    
    40   19   20 am   BACKBONE|DICT|INTERRES
    41   19   79 1    
    42   20   21 2    
    43   20   22 1    
    44   22   23 1    
    45   22   24 1    
    46   22   80 1    
    47   23   81 1    
    48   23   82 1    
    49   23   83 1    
    50   24   25 am   BACKBONE|DICT|INTERRES
    51   24   84 1    
    52   25   26 2    
    53   27   28 2    
    54   27   29 am   BACKBONE|DICT|INTERRES
    55   29   30 1    
    56   29   85 1    
    57   30   31 1    
    58   30   32 1    
    59   30   86 1    
    60   31   87 1    
    61   31   88 1    
    62   31   89 1    
    63   32   33 2    
    64   32   34 am   BACKBONE|DICT|INTERRES
    65   34   35 1    
    66   34   90 1    
    67   35   36 1    
    68   35   37 1    
    69   35   91 1    
    70   36   92 1    
    71   36   93 1    
    72   36   94 1    
    73   37   38 2    
    74   37   39 am   BACKBONE|DICT|INTERRES
    75   39   40 1    
    76   39   95 1    
    77   40   41 1    
    78   40   42 1    
    79   40   96 1    
    80   41   97 1    
    81   41   98 1    
    82   41   99 1    
    83   42   43 2    
    84   42   44 am   BACKBONE|DICT|INTERRES
    85   44   45 1    
    86   44  100 1    
    87   45   46 1    
    88   45   47 1    
    89   45  101 1    
    90   46  102 1    
    91   46  103 1    
    92   46  104 1    
    93   47   48 2    
    94   47   49 am   BACKBONE|DICT|INTERRES
    95   49   50 1    
    96   49  105 1    
    97   50   51 1    
    98   50   52 1    
    99   50  106 1    
   100   51  107 1    
   101   51  108 1    
   102   51  109 1    
   103   52   53 2    
   104   52   54 am   BACKBONE|DICT|INTERRES
   105   54   55 1    
   106   54  110 1    
   107   55   56 1    
   108   55   59 1    
   109   55  111 1    
   110   56   57 am   BACKBONE|DICT|INTERRES
   111   56   58 2    
   112   57  112 1    
   113   57  113 1    
   114   59   60 1    
   115   59  114 1    
   116   59  115 1    
   117   60   61 1    
   118   61  116 1    
   119   61  117 1    
@<TRIPOS>SUBSTRUCTURE
     1 UNK         1 GROUP             0       ****    0 ROOT    
