@<TRIPOS>MOLECULE
3R8
117   119    1
SMALL
USER_CHARGES


@<TRIPOS>ATOM
      1 CA         14.4449  -23.8934  -45.2991 C.3       0 UNK        -0.2013 
      2 C          15.3925  -25.0516  -45.0278 C.2       0 UNK         0.4866 
      3 O          16.6099  -24.8696  -45.0637 O.2       0 UNK        -0.5176 
      4 N          14.8476  -26.2414  -44.7438 N.am      1 UNK        -0.4884 
      5 CA         15.5833  -27.4852  -44.4732 C.3       1 UNK         0.0853 
      6 C6         14.7183  -28.7314  -44.7907 C.3       10 UNK        -0.0849 
      7 S7         14.4316  -28.8688  -46.5886 S.3       10 UNK        -0.2776 
      8 C8         15.4865  -30.2851  -47.0493 C.3       10 UNK         0.0316 
      9 C9         16.9205  -30.1615  -46.5436 C.ar      10 UNK        -0.0863 
     10 C10        17.4000  -31.0562  -45.5824 C.ar      10 UNK        -0.1009 
     11 C11        18.7179  -30.9844  -45.1222 C.ar      10 UNK        -0.0712 
     12 C12        19.5602  -29.9902  -45.6392 C.ar      10 UNK        -0.0894 
     13 C13        19.0908  -29.0760  -46.5862 C.ar      10 UNK        -0.0745 
     14 C14        17.7722  -29.1716  -47.0423 C.ar      10 UNK        -0.0972 
     15 C15        20.0131  -27.9959  -47.1316 C.3       10 UNK         0.0209 
     16 S16        19.9501  -26.4839  -46.1202 S.3       10 UNK        -0.2568 
     17 C17        21.2880  -26.7654  -44.9089 C.3       10 UNK        -0.0983 
     18 CA         21.0453  -25.9800  -43.5963 C.3       3 UNK         0.0876 
     19 N          19.8302  -26.4364  -42.9146 N.am      3 UNK        -0.4424 
     20 C          19.1841  -25.7761  -41.9442 C.2       2 UNK         0.4918 
     21 O          19.5931  -24.7348  -41.4289 O.2       2 UNK        -0.4875 
     22 CA         17.8180  -26.3575  -41.5505 C.3       2 UNK         0.0481 
     23 CB         17.0428  -25.4818  -40.5483 C.3       2 UNK        -0.1831 
     24 N          17.0401  -26.5266  -42.7730 N.am      2 UNK        -0.4498 
     25 C          16.1670  -27.4997  -43.0436 C.2       1 UNK         0.5027 
     26 O          15.8255  -28.3611  -42.2313 O.2       1 UNK        -0.4969 
     27 C          22.3059  -25.9776  -42.7045 C.2       3 UNK         0.5005 
     28 O          23.2657  -25.2859  -43.0484 O.2       3 UNK        -0.5279 
     29 N          22.2955  -26.7285  -41.5905 N.am      4 UNK        -0.4463 
     30 CA         23.2985  -26.7990  -40.5131 C.3       4 UNK         0.0283 
     31 CB         23.4488  -25.4366  -39.8104 C.3       4 UNK        -0.1875 
     32 C          24.6806  -27.3654  -40.8916 C.2       4 UNK         0.4949 
     33 O          25.2575  -28.1031  -40.0938 O.2       4 UNK        -0.5039 
     34 N          25.1942  -27.0273  -42.0804 N.am      5 UNK        -0.4663 
     35 CA         26.5441  -27.3449  -42.5667 C.3       5 UNK         0.0242 
     36 CB         26.7488  -26.6800  -43.9373 C.3       5 UNK        -0.1982 
     37 C          26.8718  -28.8469  -42.6461 C.2       5 UNK         0.5017 
     38 O          28.0370  -29.2189  -42.5054 O.2       5 UNK        -0.5012 
     39 N          25.8419  -29.6780  -42.8491 N.am      6 UNK        -0.4439 
     40 CA         25.9331  -31.1401  -42.8734 C.3       6 UNK         0.0297 
     41 CB         24.7860  -31.6902  -43.7369 C.3       6 UNK        -0.2006 
     42 C          25.9156  -31.7860  -41.4725 C.2       6 UNK         0.4892 
     43 O          25.9844  -33.0131  -41.3911 O.2       6 UNK        -0.5089 
     44 N          25.7795  -30.9808  -40.4054 N.am      7 UNK        -0.4243 
     45 CA         25.6599  -31.3387  -38.9832 C.3       7 UNK         0.0196 
     46 CB         26.8706  -32.1496  -38.4803 C.3       7 UNK        -0.2007 
     47 C          24.3298  -32.0259  -38.6341 C.2       7 UNK         0.5020 
     48 O          23.6309  -31.5677  -37.7304 O.2       7 UNK        -0.5147 
     49 N          23.9710  -33.0771  -39.3819 N.am      8 UNK        -0.4734 
     50 CA         22.6887  -33.7854  -39.2875 C.3       8 UNK         0.0238 
     51 CB         22.7466  -35.0520  -40.1562 C.3       8 UNK        -0.1912 
     52 C          21.4864  -32.9115  -39.6898 C.2       8 UNK         0.5038 
     53 O          20.3852  -33.1250  -39.1820 O.2       8 UNK        -0.5046 
     54 N          21.7348  -31.9355  -40.5712 N.am      9 UNK        -0.4200 
     55 CA         20.7828  -30.9023  -41.0031 C.3       9 UNK         0.0839 
     56 C          20.7882  -29.6412  -40.0899 C.2       9 UNK         0.5513 
     57 N          21.3990  -29.6637  -38.9113 N.am      9 UNK        -0.7519 
     58 O          20.2514  -28.6048  -40.4710 O.2       9 UNK        -0.4960 
     59 C59        20.9766  -30.5266  -42.4973 C.3       10 UNK        -0.0876 
     60 S60        20.9286  -31.9762  -43.6067 S.3       10 UNK        -0.2414 
     61 C61        19.1660  -32.0124  -44.0792 C.3       10 UNK         0.0169 
     62 H62        14.6109  -23.0959  -44.5753 H         1 UNK         0.0903 
     63 H63        14.6218  -23.4910  -46.2962 H         1 UNK         0.0903 
     64 H64        13.4002  -24.1971  -45.2366 H         1 UNK         0.0903 
     65 H65        13.8412  -26.3245  -44.7151 H         1 UNK         0.3096 
     66 H66        16.4510  -27.5151  -45.1368 H         1 UNK         0.1121 
     67 H67        15.1911  -29.6474  -44.4329 H         1 UNK         0.0849 
     68 H68        13.7560  -28.6756  -44.2789 H         1 UNK         0.0849 
     69 H69        15.0234  -31.2000  -46.6760 H         1 UNK         0.0865 
     70 H70        15.4984  -30.3765  -48.1363 H         1 UNK         0.0865 
     71 H71        16.7445  -31.8238  -45.1930 H         1 UNK         0.1346 
     72 H72        20.5874  -29.9179  -45.3164 H         1 UNK         0.1412 
     73 H73        17.4047  -28.4722  -47.7813 H         1 UNK         0.1426 
     74 H74        21.0393  -28.3611  -47.1963 H         1 UNK         0.0716 
     75 H75        19.7194  -27.7432  -48.1515 H         1 UNK         0.0716 
     76 H76        21.3879  -27.8312  -44.7013 H         1 UNK         0.0695 
     77 H77        22.2224  -26.4552  -45.3812 H         1 UNK         0.0695 
     78 H78        20.8808  -24.9339  -43.8652 H         1 UNK         0.0983 
     79 H79        19.3980  -27.2661  -43.2924 H         1 UNK         0.3095 
     80 H80        17.9981  -27.3324  -41.0945 H         1 UNK         0.0454 
     81 H81        16.8380  -24.4906  -40.9544 H         1 UNK         0.0851 
     82 H82        16.0900  -25.9372  -40.2789 H         1 UNK         0.0851 
     83 H83        17.6104  -25.3490  -39.6265 H         1 UNK         0.0851 
     84 H84        17.2139  -25.8459  -43.5108 H         1 UNK         0.2976 
     85 H85        21.4525  -27.2649  -41.4061 H         1 UNK         0.3116 
     86 H86        22.8844  -27.4876  -39.7773 H         1 UNK         0.0646 
     87 H87        24.1094  -25.5147  -38.9458 H         1 UNK         0.0847 
     88 H88        22.4876  -25.0686  -39.4512 H         1 UNK         0.0847 
     89 H89        23.8710  -24.6797  -40.4721 H         1 UNK         0.0847 
     90 H90        24.6399  -26.3815  -42.6412 H         1 UNK         0.3040 
     91 H91        27.2526  -26.9033  -41.8625 H         1 UNK         0.1015 
     92 H92        26.6270  -25.5983  -43.8756 H         1 UNK         0.0786 
     93 H93        26.0401  -27.0552  -44.6768 H         1 UNK         0.0786 
     94 H94        27.7528  -26.8702  -44.3199 H         1 UNK         0.0786 
     95 H95        24.9251  -29.2694  -42.9562 H         1 UNK         0.3172 
     96 H96        26.8751  -31.4265  -43.3459 H         1 UNK         0.0595 
     97 H97        23.8140  -31.4647  -43.3018 H         1 UNK         0.0839 
     98 H98        24.8522  -32.7745  -43.8370 H         1 UNK         0.0839 
     99 H99        24.8090  -31.2742  -44.7442 H         1 UNK         0.0839 
    100 H100       25.7034  -29.9824  -40.5775 H         1 UNK         0.2998 
    101 H101       25.6659  -30.3877  -38.4476 H         1 UNK         0.0822 
    102 H102       27.8066  -31.6301  -38.6859 H         1 UNK         0.0787 
    103 H103       26.8133  -32.2997  -37.4015 H         1 UNK         0.0787 
    104 H104       26.9275  -33.1369  -38.9391 H         1 UNK         0.0787 
    105 H105       24.6167  -33.3653  -40.1138 H         1 UNK         0.3055 
    106 H106       22.5426  -34.0827  -38.2466 H         1 UNK         0.1106 
    107 H107       21.8133  -35.6133  -40.0912 H         1 UNK         0.0828 
    108 H108       22.9113  -34.8132  -41.2079 H         1 UNK         0.0828 
    109 H109       23.5469  -35.7183  -39.8339 H         1 UNK         0.0828 
    110 H110       22.6768  -31.8455  -40.9176 H         1 UNK         0.2931 
    111 H111       19.7753  -31.3124  -40.9130 H         1 UNK         0.0412 
    112 H112       21.3801  -28.8370  -38.3364 H         1 UNK         0.3472 
    113 H113       21.8816  -30.4891  -38.5830 H         1 UNK         0.3472 
    114 H114       21.9305  -30.0171  -42.6415 H         1 UNK         0.0970 
    115 H115       20.2088  -29.8180  -42.8126 H         1 UNK         0.0970 
    116 H116       18.9536  -33.0094  -44.4679 H         1 UNK         0.0612 
    117 H117       18.5587  -31.8981  -43.1801 H         1 UNK         0.0612 
@<TRIPOS>BOND
     1    1    2 1    
     2    1   62 1    
     3    1   63 1    
     4    1   64 1    
     5    2    3 2    
     6    2    4 am   BACKBONE|DICT|INTERRES
     7    4    5 1    
     8    4   65 1    
     9    5    6 1    
    10    5   25 1    
    11    5   66 1    
    12    6    7 1    
    13    6   67 1    
    14    6   68 1    
    15    7    8 1    
    16    8    9 1    
    17    8   69 1    
    18    8   70 1    
    19    9   10 ar   
    20    9   14 ar   
    21   10   11 ar   
    22   10   71 1    
    23   11   12 ar   
    24   11   61 1    
    25   12   13 ar   
    26   12   72 1    
    27   13   14 ar   
    28   13   15 1    
    29   14   73 1    
    30   15   16 1    
    31   15   74 1    
    32   15   75 1    
    33   16   17 1    
    34   17   18 1    
    35   17   76 1    
    36   17   77 1    
    37   18   19 1    
    38   18   27 1    
    39   18   78 1    
    40   19   20 am   BACKBONE|DICT|INTERRES
    41   19   79 1    
    42   20   21 2    
    43   20   22 1    
    44   22   23 1    
    45   22   24 1    
    46   22   80 1    
    47   23   81 1    
    48   23   82 1    
    49   23   83 1    
    50   24   25 am   BACKBONE|DICT|INTERRES
    51   24   84 1    
    52   25   26 2    
    53   27   28 2    
    54   27   29 am   BACKBONE|DICT|INTERRES
    55   29   30 1    
    56   29   85 1    
    57   30   31 1    
    58   30   32 1    
    59   30   86 1    
    60   31   87 1    
    61   31   88 1    
    62   31   89 1    
    63   32   33 2    
    64   32   34 am   BACKBONE|DICT|INTERRES
    65   34   35 1    
    66   34   90 1    
    67   35   36 1    
    68   35   37 1    
    69   35   91 1    
    70   36   92 1    
    71   36   93 1    
    72   36   94 1    
    73   37   38 2    
    74   37   39 am   BACKBONE|DICT|INTERRES
    75   39   40 1    
    76   39   95 1    
    77   40   41 1    
    78   40   42 1    
    79   40   96 1    
    80   41   97 1    
    81   41   98 1    
    82   41   99 1    
    83   42   43 2    
    84   42   44 am   BACKBONE|DICT|INTERRES
    85   44   45 1    
    86   44  100 1    
    87   45   46 1    
    88   45   47 1    
    89   45  101 1    
    90   46  102 1    
    91   46  103 1    
    92   46  104 1    
    93   47   48 2    
    94   47   49 am   BACKBONE|DICT|INTERRES
    95   49   50 1    
    96   49  105 1    
    97   50   51 1    
    98   50   52 1    
    99   50  106 1    
   100   51  107 1    
   101   51  108 1    
   102   51  109 1    
   103   52   53 2    
   104   52   54 am   BACKBONE|DICT|INTERRES
   105   54   55 1    
   106   54  110 1    
   107   55   56 1    
   108   55   59 1    
   109   55  111 1    
   110   56   57 am   BACKBONE|DICT|INTERRES
   111   56   58 2    
   112   57  112 1    
   113   57  113 1    
   114   59   60 1    
   115   59  114 1    
   116   59  115 1    
   117   60   61 1    
   118   61  116 1    
   119   61  117 1    
@<TRIPOS>SUBSTRUCTURE
     1 UNK         1 GROUP             0       ****    0 ROOT    
