@<TRIPOS>MOLECULE
3R8
117   119    1
SMALL
USER_CHARGES


@<TRIPOS>ATOM
      1 CA         19.5264  -22.5010  -46.4059 C.3       0 UNK        -0.2013 
      2 C          18.2318  -23.2879  -46.5977 C.2       0 UNK         0.4866 
      3 O          17.2491  -22.7198  -47.0694 O.2       0 UNK        -0.5176 
      4 N          18.1700  -24.5857  -46.2628 N.am      1 UNK        -0.4884 
      5 CA         19.2274  -25.4086  -45.6583 C.3       1 UNK         0.0853 
      6 C6         18.8161  -26.8992  -45.5790 C.3       10 UNK        -0.0849 
      7 S7         18.5510  -27.6900  -47.1950 S.3       10 UNK        -0.2776 
      8 C8         17.4707  -29.0837  -46.7152 C.3       10 UNK         0.0316 
      9 C9         18.0152  -29.8775  -45.5299 C.ar      10 UNK        -0.0863 
     10 C10        19.2306  -30.5617  -45.6395 C.ar      10 UNK        -0.1009 
     11 C11        19.7362  -31.2850  -44.5561 C.ar      10 UNK        -0.0712 
     12 C12        19.0079  -31.3375  -43.3661 C.ar      10 UNK        -0.0894 
     13 C13        17.7910  -30.6631  -43.2378 C.ar      10 UNK        -0.0745 
     14 C14        17.3021  -29.9293  -44.3246 C.ar      10 UNK        -0.0972 
     15 C15        16.9875  -30.7695  -41.9438 C.3       10 UNK         0.0209 
     16 S16        17.9714  -30.4082  -40.4464 S.3       10 UNK        -0.2568 
     17 C17        18.0434  -28.5874  -40.4671 C.3       10 UNK        -0.0983 
     18 CA         19.2715  -28.0444  -41.2396 C.3       3 UNK         0.0876 
     19 N          19.0554  -26.7003  -41.7803 N.am      3 UNK        -0.4424 
     20 C          18.8131  -25.5474  -41.1408 C.2       2 UNK         0.4918 
     21 O          18.7501  -25.4511  -39.9147 O.2       2 UNK        -0.4875 
     22 CA         18.5909  -24.2860  -42.0086 C.3       2 UNK         0.0481 
     23 CB         19.5759  -23.1612  -41.6332 C.3       2 UNK        -0.1831 
     24 N          18.5847  -24.5336  -43.4618 N.am      2 UNK        -0.4498 
     25 C          19.5981  -24.9604  -44.2329 C.2       1 UNK         0.5027 
     26 O          20.7529  -25.1045  -43.8371 O.2       1 UNK        -0.4969 
     27 C          20.5968  -28.1770  -40.4624 C.2       3 UNK         0.5005 
     28 O          21.4341  -29.0008  -40.8332 O.2       3 UNK        -0.5279 
     29 N          20.7959  -27.3344  -39.4406 N.am      4 UNK        -0.4463 
     30 CA         22.0134  -27.2647  -38.6292 C.3       4 UNK         0.0283 
     31 CB         21.7826  -26.3336  -37.4290 C.3       4 UNK        -0.1875 
     32 C          23.2395  -26.8154  -39.4396 C.2       4 UNK         0.4949 
     33 O          24.3085  -27.4075  -39.2979 O.2       4 UNK        -0.5039 
     34 N          23.0537  -25.8174  -40.3169 N.am      5 UNK        -0.4663 
     35 CA         24.0891  -25.3226  -41.2342 C.3       5 UNK         0.0242 
     36 CB         23.6474  -23.9787  -41.8333 C.3       5 UNK        -0.1982 
     37 C          24.4364  -26.3256  -42.3502 C.2       5 UNK         0.5017 
     38 O          25.5511  -26.2878  -42.8708 O.2       5 UNK        -0.5012 
     39 N          23.4912  -27.2204  -42.6676 N.am      6 UNK        -0.4439 
     40 CA         23.6602  -28.3490  -43.5847 C.3       6 UNK         0.0297 
     41 CB         22.3182  -28.6182  -44.2848 C.3       6 UNK        -0.2006 
     42 C          24.1956  -29.6146  -42.8806 C.2       6 UNK         0.4892 
     43 O          24.3243  -30.6493  -43.5359 O.2       6 UNK        -0.5089 
     44 N          24.4984  -29.5140  -41.5753 N.am      7 UNK        -0.4243 
     45 CA         25.0452  -30.5491  -40.6920 C.3       7 UNK         0.0196 
     46 CB         26.4652  -30.9586  -41.1391 C.3       7 UNK        -0.2007 
     47 C          24.1079  -31.7547  -40.4902 C.2       7 UNK         0.5020 
     48 O          24.5900  -32.8745  -40.3141 O.2       7 UNK        -0.5147 
     49 N          22.7880  -31.5160  -40.5207 N.am      8 UNK        -0.4734 
     50 CA         21.6707  -32.4492  -40.2937 C.3       8 UNK         0.0238 
     51 CB         21.7022  -33.0077  -38.8581 C.3       8 UNK        -0.1912 
     52 C          21.5072  -33.5886  -41.3214 C.2       8 UNK         0.5038 
     53 O          20.3803  -34.0490  -41.4970 O.2       8 UNK        -0.5046 
     54 N          22.6035  -34.0134  -41.9624 N.am      9 UNK        -0.4200 
     55 CA         22.7679  -34.9847  -43.0635 C.3       9 UNK         0.0839 
     56 C          22.1251  -36.4005  -42.9297 C.2       9 UNK         0.5513 
     57 N          21.3266  -36.6916  -41.9139 N.am      9 UNK        -0.7519 
     58 O          22.4022  -37.2749  -43.7473 O.2       9 UNK        -0.4960 
     59 C59        22.5712  -34.3506  -44.4712 C.3       10 UNK        -0.0876 
     60 S60        20.8727  -33.7909  -44.8405 S.3       10 UNK        -0.2414 
     61 C61        21.0766  -31.9947  -44.6507 C.3       10 UNK         0.0169 
     62 H62        19.6376  -22.1937  -45.3664 H         1 UNK         0.0903 
     63 H63        20.4024  -23.0776  -46.6991 H         1 UNK         0.0903 
     64 H64        19.5137  -21.5996  -47.0183 H         1 UNK         0.0903 
     65 H65        17.3086  -25.0791  -46.4517 H         1 UNK         0.3096 
     66 H66        20.1256  -25.3349  -46.2747 H         1 UNK         0.1121 
     67 H67        17.9039  -27.0086  -44.9881 H         1 UNK         0.0849 
     68 H68        19.5808  -27.4881  -45.0685 H         1 UNK         0.0849 
     69 H69        16.4750  -28.6956  -46.4948 H         1 UNK         0.0865 
     70 H70        17.3534  -29.7517  -47.5696 H         1 UNK         0.0865 
     71 H71        19.7875  -30.5181  -46.5656 H         1 UNK         0.1346 
     72 H72        19.3881  -31.9109  -42.5340 H         1 UNK         0.1412 
     73 H73        16.3578  -29.4094  -44.2366 H         1 UNK         0.1426 
     74 H74        16.1117  -30.1194  -41.9689 H         1 UNK         0.0716 
     75 H75        16.6068  -31.7885  -41.8647 H         1 UNK         0.0716 
     76 H76        18.0296  -28.2207  -39.4392 H         1 UNK         0.0695 
     77 H77        17.1215  -28.2197  -40.9203 H         1 UNK         0.0695 
     78 H78        19.3950  -28.6618  -42.1302 H         1 UNK         0.0983 
     79 H79        19.1317  -26.6366  -42.7827 H         1 UNK         0.3095 
     80 H80        17.5872  -23.9334  -41.7673 H         1 UNK         0.0454 
     81 H81        19.3965  -22.2632  -42.2241 H         1 UNK         0.0851 
     82 H82        20.6129  -23.4579  -41.7812 H         1 UNK         0.0851 
     83 H83        19.4687  -22.8828  -40.5840 H         1 UNK         0.0851 
     84 H84        17.6770  -24.4599  -43.9024 H         1 UNK         0.2976 
     85 H85        20.0651  -26.6522  -39.2529 H         1 UNK         0.3116 
     86 H86        22.2174  -28.2681  -38.2489 H         1 UNK         0.0646 
     87 H87        20.9705  -26.6950  -36.7979 H         1 UNK         0.0847 
     88 H88        22.6747  -26.2746  -36.8038 H         1 UNK         0.0847 
     89 H89        21.5362  -25.3185  -37.7429 H         1 UNK         0.0847 
     90 H90        22.1444  -25.3822  -40.3705 H         1 UNK         0.3040 
     91 H91        24.9998  -25.1538  -40.6545 H         1 UNK         0.1015 
     92 H92        22.7773  -24.0915  -42.4792 H         1 UNK         0.0786 
     93 H93        24.4435  -23.5458  -42.4406 H         1 UNK         0.0786 
     94 H94        23.4033  -23.2536  -41.0567 H         1 UNK         0.0786 
     95 H95        22.6149  -27.1779  -42.1680 H         1 UNK         0.3172 
     96 H96        24.3875  -28.0781  -44.3527 H         1 UNK         0.0595 
     97 H97        21.5584  -28.9742  -43.5886 H         1 UNK         0.0839 
     98 H98        22.4312  -29.3741  -45.0617 H         1 UNK         0.0839 
     99 H99        21.9411  -27.7181  -44.7697 H         1 UNK         0.0839 
    100 H100       24.3268  -28.6250  -41.1218 H         1 UNK         0.2998 
    101 H101       25.1362  -30.0824  -39.7101 H         1 UNK         0.0822 
    102 H102       26.9351  -31.6116  -40.4025 H         1 UNK         0.0787 
    103 H103       26.4520  -31.4965  -42.0876 H         1 UNK         0.0787 
    104 H104       27.1107  -30.0880  -41.2554 H         1 UNK         0.0787 
    105 H105       22.4912  -30.5583  -40.7060 H         1 UNK         0.3055 
    106 H106       20.7708  -31.8381  -40.3836 H         1 UNK         0.1106 
    107 H107       20.8165  -33.6117  -38.6562 H         1 UNK         0.0828 
    108 H108       22.5722  -33.6419  -38.6856 H         1 UNK         0.0828 
    109 H109       21.7195  -32.2045  -38.1214 H         1 UNK         0.0828 
    110 H110       23.4732  -33.6133  -41.6228 H         1 UNK         0.2931 
    111 H111       23.8336  -35.2093  -43.0037 H         1 UNK         0.0412 
    112 H112       20.9340  -37.6160  -41.8319 H         1 UNK         0.3472 
    113 H113       20.9917  -35.9351  -41.3306 H         1 UNK         0.3472 
    114 H114       22.8655  -35.0590  -45.2477 H         1 UNK         0.0970 
    115 H115       23.2577  -33.5098  -44.5859 H         1 UNK         0.0970 
    116 H116       21.6586  -31.6150  -45.4914 H         1 UNK         0.0612 
    117 H117       21.6565  -31.7810  -43.7515 H         1 UNK         0.0612 
@<TRIPOS>BOND
     1    1    2 1    
     2    1   62 1    
     3    1   63 1    
     4    1   64 1    
     5    2    3 2    
     6    2    4 am   BACKBONE|DICT|INTERRES
     7    4    5 1    
     8    4   65 1    
     9    5    6 1    
    10    5   25 1    
    11    5   66 1    
    12    6    7 1    
    13    6   67 1    
    14    6   68 1    
    15    7    8 1    
    16    8    9 1    
    17    8   69 1    
    18    8   70 1    
    19    9   10 ar   
    20    9   14 ar   
    21   10   11 ar   
    22   10   71 1    
    23   11   12 ar   
    24   11   61 1    
    25   12   13 ar   
    26   12   72 1    
    27   13   14 ar   
    28   13   15 1    
    29   14   73 1    
    30   15   16 1    
    31   15   74 1    
    32   15   75 1    
    33   16   17 1    
    34   17   18 1    
    35   17   76 1    
    36   17   77 1    
    37   18   19 1    
    38   18   27 1    
    39   18   78 1    
    40   19   20 am   BACKBONE|DICT|INTERRES
    41   19   79 1    
    42   20   21 2    
    43   20   22 1    
    44   22   23 1    
    45   22   24 1    
    46   22   80 1    
    47   23   81 1    
    48   23   82 1    
    49   23   83 1    
    50   24   25 am   BACKBONE|DICT|INTERRES
    51   24   84 1    
    52   25   26 2    
    53   27   28 2    
    54   27   29 am   BACKBONE|DICT|INTERRES
    55   29   30 1    
    56   29   85 1    
    57   30   31 1    
    58   30   32 1    
    59   30   86 1    
    60   31   87 1    
    61   31   88 1    
    62   31   89 1    
    63   32   33 2    
    64   32   34 am   BACKBONE|DICT|INTERRES
    65   34   35 1    
    66   34   90 1    
    67   35   36 1    
    68   35   37 1    
    69   35   91 1    
    70   36   92 1    
    71   36   93 1    
    72   36   94 1    
    73   37   38 2    
    74   37   39 am   BACKBONE|DICT|INTERRES
    75   39   40 1    
    76   39   95 1    
    77   40   41 1    
    78   40   42 1    
    79   40   96 1    
    80   41   97 1    
    81   41   98 1    
    82   41   99 1    
    83   42   43 2    
    84   42   44 am   BACKBONE|DICT|INTERRES
    85   44   45 1    
    86   44  100 1    
    87   45   46 1    
    88   45   47 1    
    89   45  101 1    
    90   46  102 1    
    91   46  103 1    
    92   46  104 1    
    93   47   48 2    
    94   47   49 am   BACKBONE|DICT|INTERRES
    95   49   50 1    
    96   49  105 1    
    97   50   51 1    
    98   50   52 1    
    99   50  106 1    
   100   51  107 1    
   101   51  108 1    
   102   51  109 1    
   103   52   53 2    
   104   52   54 am   BACKBONE|DICT|INTERRES
   105   54   55 1    
   106   54  110 1    
   107   55   56 1    
   108   55   59 1    
   109   55  111 1    
   110   56   57 am   BACKBONE|DICT|INTERRES
   111   56   58 2    
   112   57  112 1    
   113   57  113 1    
   114   59   60 1    
   115   59  114 1    
   116   59  115 1    
   117   60   61 1    
   118   61  116 1    
   119   61  117 1    
@<TRIPOS>SUBSTRUCTURE
     1 UNK         1 GROUP             0       ****    0 ROOT    
