@<TRIPOS>MOLECULE
3R8
117   119    1
SMALL
USER_CHARGES


@<TRIPOS>ATOM
      1 CA         13.8318  -22.2474  -44.5196 C.3       0 UNK        -0.2013 
      2 C          14.8993  -23.3308  -44.5271 C.2       0 UNK         0.4866 
      3 O          15.6140  -23.4921  -43.5381 O.2       0 UNK        -0.5176 
      4 N          15.0290  -24.0625  -45.6427 N.am      1 UNK        -0.4884 
      5 CA         15.9505  -25.1851  -45.8921 C.3       1 UNK         0.0853 
      6 C6         15.7860  -26.3479  -44.8704 C.3       10 UNK        -0.0849 
      7 S7         16.0755  -27.9859  -45.6206 S.3       10 UNK        -0.2776 
      8 C8         15.8529  -29.0952  -44.1918 C.3       10 UNK         0.0316 
      9 C9         17.1387  -29.2443  -43.3914 C.ar      10 UNK        -0.0863 
     10 C10        18.0856  -30.2069  -43.7580 C.ar      10 UNK        -0.1009 
     11 C11        19.2800  -30.3371  -43.0424 C.ar      10 UNK        -0.0712 
     12 C12        19.5206  -29.5027  -41.9489 C.ar      10 UNK        -0.0894 
     13 C13        18.5862  -28.5306  -41.5793 C.ar      10 UNK        -0.0745 
     14 C14        17.3895  -28.4166  -42.2935 C.ar      10 UNK        -0.0972 
     15 C15        18.8964  -27.5570  -40.4538 C.3       10 UNK         0.0209 
     16 S16        19.3311  -25.9136  -41.1115 S.3       10 UNK        -0.2568 
     17 C17        20.8459  -26.2767  -42.0635 C.3       10 UNK        -0.0983 
     18 CA         20.5733  -26.5411  -43.5717 C.3       3 UNK         0.0876 
     19 N          19.8789  -25.4582  -44.2650 N.am      3 UNK        -0.4424 
     20 C          20.2546  -24.1861  -44.4318 C.2       2 UNK         0.4918 
     21 O          21.3303  -23.7325  -44.0382 O.2       2 UNK        -0.4875 
     22 CA         19.2476  -23.2411  -45.1202 C.3       2 UNK         0.0481 
     23 CB         19.7920  -22.7245  -46.4668 C.3       2 UNK        -0.1831 
     24 N          17.8843  -23.7862  -45.2523 N.am      2 UNK        -0.4498 
     25 C          17.4319  -24.7676  -46.0478 C.2       1 UNK         0.5027 
     26 O          18.1389  -25.3584  -46.8634 O.2       1 UNK        -0.4969 
     27 C          21.8412  -27.0041  -44.3075 C.2       3 UNK         0.5005 
     28 O          21.8581  -28.1183  -44.8339 O.2       3 UNK        -0.5279 
     29 N          22.8847  -26.1615  -44.3000 N.am      4 UNK        -0.4463 
     30 CA         24.2657  -26.4040  -44.7418 C.3       4 UNK         0.0283 
     31 CB         24.3445  -26.6911  -46.2547 C.3       4 UNK        -0.1875 
     32 C          24.9716  -27.4911  -43.9102 C.2       4 UNK         0.4949 
     33 O          25.9271  -27.1885  -43.1964 O.2       4 UNK        -0.5039 
     34 N          24.4539  -28.7219  -43.9702 N.am      5 UNK        -0.4663 
     35 CA         24.8605  -29.8713  -43.1639 C.3       5 UNK         0.0242 
     36 CB         24.7631  -31.1399  -44.0328 C.3       5 UNK        -0.1982 
     37 C          23.9896  -29.9531  -41.8975 C.2       5 UNK         0.5017 
     38 O          23.3379  -30.9725  -41.6649 O.2       5 UNK        -0.5012 
     39 N          23.9750  -28.8634  -41.1144 N.am      6 UNK        -0.4439 
     40 CA         23.2234  -28.7141  -39.8641 C.3       6 UNK         0.0297 
     41 CB         23.4758  -27.3158  -39.2778 C.3       6 UNK        -0.2006 
     42 C          23.5864  -29.8115  -38.8520 C.2       6 UNK         0.4892 
     43 O          24.7608  -29.9419  -38.5014 O.2       6 UNK        -0.5089 
     44 N          22.5851  -30.6177  -38.4705 N.am      7 UNK        -0.4243 
     45 CA         22.6458  -31.8466  -37.6615 C.3       7 UNK         0.0196 
     46 CB         23.2160  -31.5774  -36.2551 C.3       7 UNK        -0.2007 
     47 C          23.3742  -33.0250  -38.3397 C.2       7 UNK         0.5020 
     48 O          22.9538  -34.1686  -38.1628 O.2       7 UNK        -0.5147 
     49 N          24.4274  -32.7397  -39.1155 N.am      8 UNK        -0.4734 
     50 CA         25.2543  -33.6973  -39.8542 C.3       8 UNK         0.0238 
     51 CB         26.4153  -32.9473  -40.5266 C.3       8 UNK        -0.1912 
     52 C          24.4860  -34.5442  -40.8840 C.2       8 UNK         0.5038 
     53 O          24.8879  -35.6832  -41.1271 O.2       8 UNK        -0.5046 
     54 N          23.3985  -34.0012  -41.4500 N.am      9 UNK        -0.4200 
     55 CA         22.4645  -34.7446  -42.3106 C.3       9 UNK         0.0839 
     56 C          21.5898  -35.8091  -41.5797 C.2       9 UNK         0.5513 
     57 N          21.5691  -35.8711  -40.2526 N.am      9 UNK        -0.7519 
     58 O          20.9266  -36.6081  -42.2363 O.2       9 UNK        -0.4960 
     59 C59        21.6242  -33.8052  -43.2141 C.3       10 UNK        -0.0876 
     60 S60        20.4422  -32.7415  -42.3162 S.3       10 UNK        -0.2414 
     61 C61        20.3348  -31.3435  -43.4733 C.3       10 UNK         0.0169 
     62 H62        13.1214  -22.4279  -43.7133 H         1 UNK         0.0903 
     63 H63        14.2890  -21.2715  -44.3587 H         1 UNK         0.0903 
     64 H64        13.2780  -22.2124  -45.4576 H         1 UNK         0.0903 
     65 H65        14.4288  -23.8409  -46.4264 H         1 UNK         0.3096 
     66 H66        15.6480  -25.5573  -46.8729 H         1 UNK         0.1121 
     67 H67        14.7670  -26.3586  -44.4799 H         1 UNK         0.0849 
     68 H68        16.4332  -26.2127  -44.0017 H         1 UNK         0.0849 
     69 H69        15.0421  -28.7330  -43.5576 H         1 UNK         0.0865 
     70 H70        15.5348  -30.0738  -44.5549 H         1 UNK         0.0865 
     71 H71        17.8991  -30.8426  -44.6129 H         1 UNK         0.1346 
     72 H72        20.4537  -29.5961  -41.4128 H         1 UNK         0.1412 
     73 H73        16.6705  -27.6591  -42.0124 H         1 UNK         0.1426 
     74 H74        19.7097  -27.9261  -39.8272 H         1 UNK         0.0716 
     75 H75        18.0256  -27.4616  -39.8037 H         1 UNK         0.0716 
     76 H76        21.3437  -27.1354  -41.6130 H         1 UNK         0.0695 
     77 H77        21.5274  -25.4352  -41.9313 H         1 UNK         0.0695 
     78 H78        19.8832  -27.3804  -43.6420 H         1 UNK         0.0983 
     79 H79        19.0017  -25.7242  -44.6868 H         1 UNK         0.3095 
     80 H80        19.1475  -22.3794  -44.4588 H         1 UNK         0.0454 
     81 H81        19.9920  -23.5355  -47.1672 H         1 UNK         0.0851 
     82 H82        20.7305  -22.1873  -46.3243 H         1 UNK         0.0851 
     83 H83        19.0937  -22.0345  -46.9400 H         1 UNK         0.0851 
     84 H84        17.2106  -23.4332  -44.5761 H         1 UNK         0.2976 
     85 H85        22.7112  -25.2436  -43.9013 H         1 UNK         0.3116 
     86 H86        24.8025  -25.4711  -44.5618 H         1 UNK         0.0646 
     87 H87        23.8263  -27.6089  -46.5331 H         1 UNK         0.0847 
     88 H88        25.3817  -26.7976  -46.5748 H         1 UNK         0.0847 
     89 H89        23.9099  -25.8760  -46.8332 H         1 UNK         0.0847 
     90 H90        23.5867  -28.8206  -44.4939 H         1 UNK         0.3040 
     91 H91        25.8982  -29.7587  -42.8421 H         1 UNK         0.1015 
     92 H92        23.7502  -31.2935  -44.4061 H         1 UNK         0.0786 
     93 H93        25.0426  -32.0306  -43.4689 H         1 UNK         0.0786 
     94 H94        25.4296  -31.0803  -44.8932 H         1 UNK         0.0786 
     95 H95        24.5713  -28.0913  -41.3796 H         1 UNK         0.3172 
     96 H96        22.1632  -28.7942  -40.1040 H         1 UNK         0.0595 
     97 H97        24.5282  -27.1650  -39.0332 H         1 UNK         0.0839 
     98 H98        22.9049  -27.1700  -38.3598 H         1 UNK         0.0839 
     99 H99        23.1771  -26.5295  -39.9709 H         1 UNK         0.0839 
    100 H100       21.6742  -30.4316  -38.8664 H         1 UNK         0.2998 
    101 H101       21.6086  -32.1623  -37.5362 H         1 UNK         0.0822 
    102 H102       23.1417  -32.4687  -35.6307 H         1 UNK         0.0787 
    103 H103       24.2685  -31.2942  -36.2861 H         1 UNK         0.0787 
    104 H104       22.6685  -30.7815  -35.7504 H         1 UNK         0.0787 
    105 H105       24.7027  -31.7633  -39.1632 H         1 UNK         0.3055 
    106 H106       25.6731  -34.3920  -39.1231 H         1 UNK         0.1106 
    107 H107       27.0601  -33.6345  -41.0764 H         1 UNK         0.0828 
    108 H108       26.0563  -32.1997  -41.2335 H         1 UNK         0.0828 
    109 H109       27.0385  -32.4393  -39.7904 H         1 UNK         0.0828 
    110 H110       23.1562  -33.0387  -41.2402 H         1 UNK         0.2931 
    111 H111       23.0869  -35.3245  -42.9951 H         1 UNK         0.0412 
    112 H112       22.1115  -35.2273  -39.6876 H         1 UNK         0.3472 
    113 H113       21.0008  -36.5713  -39.8032 H         1 UNK         0.3472 
    114 H114       21.0671  -34.3880  -43.9500 H         1 UNK         0.0970 
    115 H115       22.2994  -33.1740  -43.7930 H         1 UNK         0.0970 
    116 H116       21.3041  -30.8466  -43.5354 H         1 UNK         0.0612 
    117 H117       20.1160  -31.7214  -44.4732 H         1 UNK         0.0612 
@<TRIPOS>BOND
     1    1    2 1    
     2    1   62 1    
     3    1   63 1    
     4    1   64 1    
     5    2    3 2    
     6    2    4 am   BACKBONE|DICT|INTERRES
     7    4    5 1    
     8    4   65 1    
     9    5    6 1    
    10    5   25 1    
    11    5   66 1    
    12    6    7 1    
    13    6   67 1    
    14    6   68 1    
    15    7    8 1    
    16    8    9 1    
    17    8   69 1    
    18    8   70 1    
    19    9   10 ar   
    20    9   14 ar   
    21   10   11 ar   
    22   10   71 1    
    23   11   12 ar   
    24   11   61 1    
    25   12   13 ar   
    26   12   72 1    
    27   13   14 ar   
    28   13   15 1    
    29   14   73 1    
    30   15   16 1    
    31   15   74 1    
    32   15   75 1    
    33   16   17 1    
    34   17   18 1    
    35   17   76 1    
    36   17   77 1    
    37   18   19 1    
    38   18   27 1    
    39   18   78 1    
    40   19   20 am   BACKBONE|DICT|INTERRES
    41   19   79 1    
    42   20   21 2    
    43   20   22 1    
    44   22   23 1    
    45   22   24 1    
    46   22   80 1    
    47   23   81 1    
    48   23   82 1    
    49   23   83 1    
    50   24   25 am   BACKBONE|DICT|INTERRES
    51   24   84 1    
    52   25   26 2    
    53   27   28 2    
    54   27   29 am   BACKBONE|DICT|INTERRES
    55   29   30 1    
    56   29   85 1    
    57   30   31 1    
    58   30   32 1    
    59   30   86 1    
    60   31   87 1    
    61   31   88 1    
    62   31   89 1    
    63   32   33 2    
    64   32   34 am   BACKBONE|DICT|INTERRES
    65   34   35 1    
    66   34   90 1    
    67   35   36 1    
    68   35   37 1    
    69   35   91 1    
    70   36   92 1    
    71   36   93 1    
    72   36   94 1    
    73   37   38 2    
    74   37   39 am   BACKBONE|DICT|INTERRES
    75   39   40 1    
    76   39   95 1    
    77   40   41 1    
    78   40   42 1    
    79   40   96 1    
    80   41   97 1    
    81   41   98 1    
    82   41   99 1    
    83   42   43 2    
    84   42   44 am   BACKBONE|DICT|INTERRES
    85   44   45 1    
    86   44  100 1    
    87   45   46 1    
    88   45   47 1    
    89   45  101 1    
    90   46  102 1    
    91   46  103 1    
    92   46  104 1    
    93   47   48 2    
    94   47   49 am   BACKBONE|DICT|INTERRES
    95   49   50 1    
    96   49  105 1    
    97   50   51 1    
    98   50   52 1    
    99   50  106 1    
   100   51  107 1    
   101   51  108 1    
   102   51  109 1    
   103   52   53 2    
   104   52   54 am   BACKBONE|DICT|INTERRES
   105   54   55 1    
   106   54  110 1    
   107   55   56 1    
   108   55   59 1    
   109   55  111 1    
   110   56   57 am   BACKBONE|DICT|INTERRES
   111   56   58 2    
   112   57  112 1    
   113   57  113 1    
   114   59   60 1    
   115   59  114 1    
   116   59  115 1    
   117   60   61 1    
   118   61  116 1    
   119   61  117 1    
@<TRIPOS>SUBSTRUCTURE
     1 UNK         1 GROUP             0       ****    0 ROOT    
