@<TRIPOS>MOLECULE
3R8
117   119    1
SMALL
USER_CHARGES


@<TRIPOS>ATOM
      1 CA         15.3006  -22.1905  -41.2048 C.3       0 UNK        -0.2013 
      2 C          15.4957  -23.1141  -42.3981 C.2       0 UNK         0.4866 
      3 O          14.7960  -22.9734  -43.4020 O.2       0 UNK        -0.5176 
      4 N          16.4338  -24.0635  -42.2940 N.am      1 UNK        -0.4884 
      5 CA         16.7936  -25.0023  -43.3616 C.3       1 UNK         0.0853 
      6 C6         17.6145  -26.1989  -42.8160 C.3       10 UNK        -0.0849 
      7 S7         16.5441  -27.4689  -42.0650 S.3       10 UNK        -0.2776 
      8 C8         16.0456  -28.4471  -43.5251 C.3       10 UNK         0.0316 
      9 C9         17.1910  -29.2755  -44.0934 C.ar      10 UNK        -0.0863 
     10 C10        17.4803  -30.5308  -43.5507 C.ar      10 UNK        -0.1009 
     11 C11        18.5282  -31.3022  -44.0616 C.ar      10 UNK        -0.0712 
     12 C12        19.2856  -30.8097  -45.1299 C.ar      10 UNK        -0.0894 
     13 C13        19.0124  -29.5524  -45.6790 C.ar      10 UNK        -0.0745 
     14 C14        17.9524  -28.7989  -45.1669 C.ar      10 UNK        -0.0972 
     15 C15        19.8674  -29.0076  -46.8171 C.3       10 UNK         0.0209 
     16 S16        21.5640  -28.6671  -46.2492 S.3       10 UNK        -0.2568 
     17 C17        21.9078  -27.0037  -46.9273 C.3       10 UNK        -0.0983 
     18 CA         21.5104  -25.7919  -46.0322 C.3       3 UNK         0.0876 
     19 N          20.0918  -25.4713  -46.1391 N.am      3 UNK        -0.4424 
     20 C          19.5438  -24.6709  -47.0586 C.2       2 UNK         0.4918 
     21 O          20.1837  -24.1578  -47.9773 O.2       2 UNK        -0.4875 
     22 CA         18.0304  -24.3903  -46.9605 C.3       2 UNK         0.0481 
     23 CB         17.2950  -25.0243  -48.1534 C.3       2 UNK        -0.1831 
     24 N          17.3996  -24.8561  -45.7209 N.am      2 UNK        -0.4498 
     25 C          17.5506  -24.3021  -44.5091 C.2       1 UNK         0.5027 
     26 O          18.2691  -23.3257  -44.2815 O.2       1 UNK        -0.4969 
     27 C          21.8431  -25.9529  -44.5360 C.2       3 UNK         0.5005 
     28 O          20.9271  -26.0861  -43.7178 O.2       3 UNK        -0.5279 
     29 N          23.1415  -25.9384  -44.2032 N.am      4 UNK        -0.4463 
     30 CA         23.6380  -26.1338  -42.8361 C.3       4 UNK         0.0283 
     31 CB         25.0988  -25.6633  -42.7468 C.3       4 UNK        -0.1875 
     32 C          23.5161  -27.5892  -42.3517 C.2       4 UNK         0.4949 
     33 O          23.3622  -27.8117  -41.1507 O.2       4 UNK        -0.5039 
     34 N          23.6144  -28.5480  -43.2877 N.am      5 UNK        -0.4663 
     35 CA         23.4479  -29.9997  -43.1069 C.3       5 UNK         0.0242 
     36 CB         21.9701  -30.3130  -42.8076 C.3       5 UNK        -0.1982 
     37 C          24.3828  -30.6227  -42.0496 C.2       5 UNK         0.5017 
     38 O          24.0064  -31.6011  -41.3988 O.2       5 UNK        -0.5012 
     39 N          25.5520  -29.9973  -41.8372 N.am      6 UNK        -0.4439 
     40 CA         26.5222  -30.2634  -40.7631 C.3       6 UNK         0.0297 
     41 CB         27.2170  -31.6222  -40.9942 C.3       6 UNK        -0.2006 
     42 C          25.9294  -30.1518  -39.3380 C.2       6 UNK         0.4892 
     43 O          26.5088  -30.7018  -38.4004 O.2       6 UNK        -0.5089 
     44 N          24.7758  -29.4733  -39.2085 N.am      7 UNK        -0.4243 
     45 CA         23.9024  -29.3963  -38.0332 C.3       7 UNK         0.0196 
     46 CB         24.5718  -28.5716  -36.9130 C.3       7 UNK        -0.2007 
     47 C          23.3977  -30.7729  -37.5446 C.2       7 UNK         0.5020 
     48 O          23.1161  -30.9181  -36.3533 O.2       7 UNK        -0.5147 
     49 N          23.3010  -31.7627  -38.4472 N.am      8 UNK        -0.4734 
     50 CA         23.0000  -33.1535  -38.0908 C.3       8 UNK         0.0238 
     51 CB         24.3177  -33.9031  -37.8211 C.3       8 UNK        -0.1912 
     52 C          22.1552  -33.9125  -39.1247 C.2       8 UNK         0.5038 
     53 O          21.4532  -34.8420  -38.7238 O.2       8 UNK        -0.5046 
     54 N          22.2446  -33.5524  -40.4144 N.am      9 UNK        -0.4200 
     55 CA         21.6278  -34.2744  -41.5466 C.3       9 UNK         0.0839 
     56 C          22.2167  -35.6995  -41.7915 C.2       9 UNK         0.5513 
     57 N          23.4163  -36.0079  -41.3123 N.am      9 UNK        -0.7519 
     58 O          21.5993  -36.5309  -42.4525 O.2       9 UNK        -0.4960 
     59 C59        20.0685  -34.2540  -41.5233 C.3       10 UNK        -0.0876 
     60 S60        19.3971  -32.5727  -41.7420 S.3       10 UNK        -0.2414 
     61 C61        18.8329  -32.6723  -43.4722 C.3       10 UNK         0.0169 
     62 H62        14.2775  -22.2635  -40.8369 H         1 UNK         0.0903 
     63 H63        15.9742  -22.4361  -40.3839 H         1 UNK         0.0903 
     64 H64        15.4851  -21.1569  -41.4968 H         1 UNK         0.0903 
     65 H65        16.9888  -24.1234  -41.4522 H         1 UNK         0.3096 
     66 H66        15.8599  -25.3780  -43.7867 H         1 UNK         0.1121 
     67 H67        18.2199  -26.6731  -43.5869 H         1 UNK         0.0849 
     68 H68        18.3371  -25.8624  -42.0701 H         1 UNK         0.0849 
     69 H69        15.2292  -29.1106  -43.2353 H         1 UNK         0.0865 
     70 H70        15.6330  -27.7887  -44.2905 H         1 UNK         0.0865 
     71 H71        16.8952  -30.9069  -42.7223 H         1 UNK         0.1346 
     72 H72        20.1041  -31.3949  -45.5264 H         1 UNK         0.1412 
     73 H73        17.7286  -27.8346  -45.5987 H         1 UNK         0.1426 
     74 H74        19.4224  -28.1021  -47.2317 H         1 UNK         0.0716 
     75 H75        19.9013  -29.7339  -47.6302 H         1 UNK         0.0716 
     76 H76        22.9826  -26.9638  -47.1097 H         1 UNK         0.0695 
     77 H77        21.4533  -26.9160  -47.9154 H         1 UNK         0.0695 
     78 H78        22.0735  -24.9200  -46.3738 H         1 UNK         0.0983 
     79 H79        19.5433  -25.7937  -45.3540 H         1 UNK         0.3095 
     80 H80        17.9000  -23.3077  -47.0183 H         1 UNK         0.0454 
     81 H81        17.7016  -24.6656  -49.1001 H         1 UNK         0.0851 
     82 H82        17.3848  -26.1113  -48.1534 H         1 UNK         0.0851 
     83 H83        16.2342  -24.7731  -48.1471 H         1 UNK         0.0851 
     84 H84        16.7739  -25.6422  -45.8180 H         1 UNK         0.2976 
     85 H85        23.8343  -25.8119  -44.9278 H         1 UNK         0.3116 
     86 H86        23.0417  -25.5140  -42.1627 H         1 UNK         0.0646 
     87 H87        25.7515  -26.2310  -43.4109 H         1 UNK         0.0847 
     88 H88        25.4845  -25.7806  -41.7329 H         1 UNK         0.0847 
     89 H89        25.1923  -24.6082  -43.0048 H         1 UNK         0.0847 
     90 H90        23.7425  -28.2466  -44.2437 H         1 UNK         0.3040 
     91 H91        23.7033  -30.4639  -44.0607 H         1 UNK         0.1015 
     92 H92        21.6966  -30.0528  -41.7842 H         1 UNK         0.0786 
     93 H93        21.7687  -31.3743  -42.9438 H         1 UNK         0.0786 
     94 H94        21.3006  -29.7689  -43.4721 H         1 UNK         0.0786 
     95 H95        25.7504  -29.1926  -42.4155 H         1 UNK         0.3172 
     96 H96        27.2812  -29.4834  -40.8368 H         1 UNK         0.0595 
     97 H97        26.5274  -32.4567  -40.8621 H         1 UNK         0.0839 
     98 H98        28.0392  -31.7678  -40.2925 H         1 UNK         0.0839 
     99 H99        27.6361  -31.6891  -41.9980 H         1 UNK         0.0839 
    100 H100       24.3932  -29.0266  -40.0384 H         1 UNK         0.2998 
    101 H101       23.0142  -28.8519  -38.3576 H         1 UNK         0.0822 
    102 H102       24.9074  -27.6023  -37.2814 H         1 UNK         0.0787 
    103 H103       23.8754  -28.3815  -36.0954 H         1 UNK         0.0787 
    104 H104       25.4347  -29.0882  -36.4915 H         1 UNK         0.0787 
    105 H105       23.5465  -31.5715  -39.4131 H         1 UNK         0.3055 
    106 H106       22.4096  -33.1689  -37.1715 H         1 UNK         0.1106 
    107 H107       24.1336  -34.9490  -37.5709 H         1 UNK         0.0828 
    108 H108       24.9764  -33.8827  -38.6901 H         1 UNK         0.0828 
    109 H109       24.8592  -33.4620  -36.9840 H         1 UNK         0.0828 
    110 H110       22.8730  -32.8008  -40.6865 H         1 UNK         0.2931 
    111 H111       21.9369  -33.7202  -42.4332 H         1 UNK         0.0412 
    112 H112       23.7952  -36.9262  -41.4839 H         1 UNK         0.3472 
    113 H113       23.9481  -35.3306  -40.7903 H         1 UNK         0.3472 
    114 H114       19.6557  -34.8893  -42.3086 H         1 UNK         0.0970 
    115 H115       19.6835  -34.6672  -40.5909 H         1 UNK         0.0970 
    116 H116       17.9391  -33.2955  -43.5234 H         1 UNK         0.0612 
    117 H117       19.5979  -33.1750  -44.0664 H         1 UNK         0.0612 
@<TRIPOS>BOND
     1    1    2 1    
     2    1   62 1    
     3    1   63 1    
     4    1   64 1    
     5    2    3 2    
     6    2    4 am   BACKBONE|DICT|INTERRES
     7    4    5 1    
     8    4   65 1    
     9    5    6 1    
    10    5   25 1    
    11    5   66 1    
    12    6    7 1    
    13    6   67 1    
    14    6   68 1    
    15    7    8 1    
    16    8    9 1    
    17    8   69 1    
    18    8   70 1    
    19    9   10 ar   
    20    9   14 ar   
    21   10   11 ar   
    22   10   71 1    
    23   11   12 ar   
    24   11   61 1    
    25   12   13 ar   
    26   12   72 1    
    27   13   14 ar   
    28   13   15 1    
    29   14   73 1    
    30   15   16 1    
    31   15   74 1    
    32   15   75 1    
    33   16   17 1    
    34   17   18 1    
    35   17   76 1    
    36   17   77 1    
    37   18   19 1    
    38   18   27 1    
    39   18   78 1    
    40   19   20 am   BACKBONE|DICT|INTERRES
    41   19   79 1    
    42   20   21 2    
    43   20   22 1    
    44   22   23 1    
    45   22   24 1    
    46   22   80 1    
    47   23   81 1    
    48   23   82 1    
    49   23   83 1    
    50   24   25 am   BACKBONE|DICT|INTERRES
    51   24   84 1    
    52   25   26 2    
    53   27   28 2    
    54   27   29 am   BACKBONE|DICT|INTERRES
    55   29   30 1    
    56   29   85 1    
    57   30   31 1    
    58   30   32 1    
    59   30   86 1    
    60   31   87 1    
    61   31   88 1    
    62   31   89 1    
    63   32   33 2    
    64   32   34 am   BACKBONE|DICT|INTERRES
    65   34   35 1    
    66   34   90 1    
    67   35   36 1    
    68   35   37 1    
    69   35   91 1    
    70   36   92 1    
    71   36   93 1    
    72   36   94 1    
    73   37   38 2    
    74   37   39 am   BACKBONE|DICT|INTERRES
    75   39   40 1    
    76   39   95 1    
    77   40   41 1    
    78   40   42 1    
    79   40   96 1    
    80   41   97 1    
    81   41   98 1    
    82   41   99 1    
    83   42   43 2    
    84   42   44 am   BACKBONE|DICT|INTERRES
    85   44   45 1    
    86   44  100 1    
    87   45   46 1    
    88   45   47 1    
    89   45  101 1    
    90   46  102 1    
    91   46  103 1    
    92   46  104 1    
    93   47   48 2    
    94   47   49 am   BACKBONE|DICT|INTERRES
    95   49   50 1    
    96   49  105 1    
    97   50   51 1    
    98   50   52 1    
    99   50  106 1    
   100   51  107 1    
   101   51  108 1    
   102   51  109 1    
   103   52   53 2    
   104   52   54 am   BACKBONE|DICT|INTERRES
   105   54   55 1    
   106   54  110 1    
   107   55   56 1    
   108   55   59 1    
   109   55  111 1    
   110   56   57 am   BACKBONE|DICT|INTERRES
   111   56   58 2    
   112   57  112 1    
   113   57  113 1    
   114   59   60 1    
   115   59  114 1    
   116   59  115 1    
   117   60   61 1    
   118   61  116 1    
   119   61  117 1    
@<TRIPOS>SUBSTRUCTURE
     1 UNK         1 GROUP             0       ****    0 ROOT    
