@<TRIPOS>MOLECULE
3R8
117   119    1
SMALL
USER_CHARGES


@<TRIPOS>ATOM
      1 CA         15.9672  -26.9570  -40.1492 C.3       0 UNK        -0.2013 
      2 C          16.1047  -26.4172  -41.5649 C.2       0 UNK         0.4866 
      3 O          15.6935  -25.2878  -41.8348 O.2       0 UNK        -0.5176 
      4 N          16.6745  -27.2189  -42.4700 N.am      1 UNK        -0.4884 
      5 CA         16.9756  -26.8497  -43.8564 C.3       1 UNK         0.0853 
      6 C6         17.1519  -28.1091  -44.7421 C.3       10 UNK        -0.0849 
      7 S7         15.6625  -29.1613  -44.7869 S.3       10 UNK        -0.2776 
      8 C8         16.0648  -30.2821  -46.1662 C.3       10 UNK         0.0316 
      9 C9         17.3682  -31.0326  -45.9295 C.ar      10 UNK        -0.0863 
     10 C10        17.4175  -32.0864  -45.0122 C.ar      10 UNK        -0.1009 
     11 C11        18.6136  -32.7738  -44.7883 C.ar      10 UNK        -0.0712 
     12 C12        19.7674  -32.3937  -45.4806 C.ar      10 UNK        -0.0894 
     13 C13        19.7318  -31.3425  -46.4011 C.ar      10 UNK        -0.0745 
     14 C14        18.5252  -30.6726  -46.6282 C.ar      10 UNK        -0.0972 
     15 C15        20.9916  -30.9570  -47.1682 C.3       10 UNK         0.0209 
     16 S16        21.4163  -29.1929  -47.0045 S.3       10 UNK        -0.2568 
     17 C17        21.7933  -29.0730  -45.2243 C.3       10 UNK        -0.0983 
     18 CA         22.1107  -27.6189  -44.7908 C.3       3 UNK         0.0876 
     19 N          21.0102  -26.7113  -45.1243 N.am      3 UNK        -0.4424 
     20 C          21.0703  -25.3759  -45.1982 C.2       2 UNK         0.4918 
     21 O          22.1103  -24.7302  -45.0729 O.2       2 UNK        -0.4875 
     22 CA         19.7353  -24.6290  -45.4177 C.3       2 UNK         0.0481 
     23 CB         19.6449  -24.1158  -46.8637 C.3       2 UNK        -0.1831 
     24 N          18.5277  -25.4137  -45.1099 N.am      2 UNK        -0.4498 
     25 C          18.2439  -25.9715  -43.9222 C.2       1 UNK         0.5027 
     26 O          18.9853  -25.8700  -42.9416 O.2       1 UNK        -0.4969 
     27 C          22.5065  -27.5796  -43.2958 C.2       3 UNK         0.5005 
     28 O          23.4790  -28.2423  -42.9340 O.2       3 UNK        -0.5279 
     29 N          21.7656  -26.8457  -42.4465 N.am      4 UNK        -0.4463 
     30 CA         22.0135  -26.6855  -41.0084 C.3       4 UNK         0.0283 
     31 CB         21.0465  -25.6420  -40.4272 C.3       4 UNK        -0.1875 
     32 C          23.4695  -26.3159  -40.6743 C.2       4 UNK         0.4949 
     33 O          23.9946  -25.3457  -41.2223 O.2       4 UNK        -0.5039 
     34 N          24.0732  -27.1237  -39.7941 N.am      5 UNK        -0.4663 
     35 CA         25.4598  -27.1033  -39.3076 C.3       5 UNK         0.0242 
     36 CB         25.9460  -25.6934  -38.9117 C.3       5 UNK        -0.1982 
     37 C          26.4595  -27.8265  -40.2273 C.2       5 UNK         0.5017 
     38 O          27.5323  -28.1912  -39.7441 O.2       5 UNK        -0.5012 
     39 N          26.0987  -28.0816  -41.4939 N.am      6 UNK        -0.4439 
     40 CA         26.7852  -29.0585  -42.3469 C.3       6 UNK         0.0297 
     41 CB         26.6810  -28.6532  -43.8269 C.3       6 UNK        -0.2006 
     42 C          26.1922  -30.4562  -42.1014 C.2       6 UNK         0.4892 
     43 O          26.9429  -31.4233  -41.9690 O.2       6 UNK        -0.5089 
     44 N          24.8607  -30.5138  -41.9865 N.am      7 UNK        -0.4243 
     45 CA         24.0795  -31.6363  -41.4832 C.3       7 UNK         0.0196 
     46 CB         23.1506  -32.1341  -42.6033 C.3       7 UNK        -0.2007 
     47 C          23.2526  -31.1391  -40.2896 C.2       7 UNK         0.5020 
     48 O          22.9464  -29.9466  -40.2065 O.2       7 UNK        -0.5147 
     49 N          22.8582  -32.0598  -39.4009 N.am      8 UNK        -0.4734 
     50 CA         21.9956  -31.7645  -38.2465 C.3       8 UNK         0.0238 
     51 CB         21.9581  -32.9829  -37.3098 C.3       8 UNK        -0.1912 
     52 C          20.5681  -31.3461  -38.6479 C.2       8 UNK         0.5038 
     53 O          19.9445  -30.5507  -37.9448 O.2       8 UNK        -0.5046 
     54 N          20.0983  -31.8811  -39.7796 N.am      9 UNK        -0.4200 
     55 CA         18.8483  -31.5204  -40.4611 C.3       9 UNK         0.0839 
     56 C          18.9127  -30.1939  -41.2721 C.2       9 UNK         0.5513 
     57 N          20.0655  -29.5551  -41.4277 N.am      9 UNK        -0.7519 
     58 O          17.8836  -29.7138  -41.7377 O.2       9 UNK        -0.4960 
     59 C59        18.3000  -32.7075  -41.3016 C.3       10 UNK        -0.0876 
     60 S60        19.5720  -33.5547  -42.3076 S.3       10 UNK        -0.2414 
     61 C61        18.6604  -33.9516  -43.8283 C.3       10 UNK         0.0169 
     62 H62        14.9192  -26.9700  -39.8513 H         1 UNK         0.0903 
     63 H63        16.3575  -27.9712  -40.0622 H         1 UNK         0.0903 
     64 H64        16.5140  -26.3231  -39.4519 H         1 UNK         0.0903 
     65 H65        17.0221  -28.1337  -42.1860 H         1 UNK         0.3096 
     66 H66        16.1440  -26.2587  -44.2468 H         1 UNK         0.1121 
     67 H67        17.9869  -28.7143  -44.3813 H         1 UNK         0.0849 
     68 H68        17.3919  -27.8333  -45.7705 H         1 UNK         0.0849 
     69 H69        15.2509  -30.9977  -46.2915 H         1 UNK         0.0865 
     70 H70        16.1102  -29.7092  -47.0938 H         1 UNK         0.0865 
     71 H71        16.5225  -32.3694  -44.4750 H         1 UNK         0.1346 
     72 H72        20.6918  -32.9267  -45.3040 H         1 UNK         0.1412 
     73 H73        18.4932  -29.8624  -47.3440 H         1 UNK         0.1426 
     74 H74        20.8409  -31.1841  -48.2243 H         1 UNK         0.0716 
     75 H75        21.8454  -31.5540  -46.8438 H         1 UNK         0.0716 
     76 H76        22.6388  -29.7323  -45.0169 H         1 UNK         0.0695 
     77 H77        20.9482  -29.4659  -44.6551 H         1 UNK         0.0695 
     78 H78        22.9914  -27.2871  -45.3450 H         1 UNK         0.0983 
     79 H79        20.1171  -27.1516  -45.2800 H         1 UNK         0.3095 
     80 H80        19.7394  -23.7656  -44.7495 H         1 UNK         0.0454 
     81 H81        19.6109  -24.9359  -47.5820 H         1 UNK         0.0851 
     82 H82        20.5097  -23.4999  -47.1150 H         1 UNK         0.0851 
     83 H83        18.7589  -23.4987  -47.0134 H         1 UNK         0.0851 
     84 H84        17.8755  -25.5379  -45.8715 H         1 UNK         0.2976 
     85 H85        20.9622  -26.3460  -42.8128 H         1 UNK         0.3116 
     86 H86        21.7843  -27.6398  -40.5350 H         1 UNK         0.0646 
     87 H87        20.0116  -25.9761  -40.5003 H         1 UNK         0.0847 
     88 H88        21.1300  -24.6848  -40.9433 H         1 UNK         0.0847 
     89 H89        21.2498  -25.4634  -39.3705 H         1 UNK         0.0847 
     90 H90        23.5478  -27.9449  -39.5104 H         1 UNK         0.3040 
     91 H91        25.4359  -27.6944  -38.3904 H         1 UNK         0.1015 
     92 H92        26.1143  -25.0583  -39.7816 H         1 UNK         0.0786 
     93 H93        26.8927  -25.7499  -38.3730 H         1 UNK         0.0786 
     94 H94        25.2312  -25.1927  -38.2587 H         1 UNK         0.0786 
     95 H95        25.1854  -27.7711  -41.8095 H         1 UNK         0.3172 
     96 H96        27.8463  -29.0894  -42.0904 H         1 UNK         0.0595 
     97 H97        25.6557  -28.6768  -44.1943 H         1 UNK         0.0839 
     98 H98        27.2604  -29.3332  -44.4525 H         1 UNK         0.0839 
     99 H99        27.0726  -27.6493  -43.9911 H         1 UNK         0.0839 
    100 H100       24.3245  -29.6584  -42.1275 H         1 UNK         0.2998 
    101 H101       24.7337  -32.4466  -41.1546 H         1 UNK         0.0822 
    102 H102       23.7172  -32.4184  -43.4901 H         1 UNK         0.0787 
    103 H103       22.5885  -33.0121  -42.2845 H         1 UNK         0.0787 
    104 H104       22.4283  -31.3715  -42.9002 H         1 UNK         0.0787 
    105 H105       23.1434  -33.0212  -39.5267 H         1 UNK         0.3055 
    106 H106       22.4358  -30.9258  -37.7020 H         1 UNK         0.1106 
    107 H107       21.5427  -33.8620  -37.8041 H         1 UNK         0.0828 
    108 H108       21.3414  -32.7810  -36.4327 H         1 UNK         0.0828 
    109 H109       22.9549  -33.2381  -36.9497 H         1 UNK         0.0828 
    110 H110       20.6894  -32.5222  -40.2878 H         1 UNK         0.2931 
    111 H111       18.1078  -31.3289  -39.6821 H         1 UNK         0.0412 
    112 H112       20.0704  -28.6814  -41.9258 H         1 UNK         0.3472 
    113 H113       20.9176  -29.9001  -41.0078 H         1 UNK         0.3472 
    114 H114       17.4705  -32.3878  -41.9354 H         1 UNK         0.0970 
    115 H115       17.8759  -33.4534  -40.6280 H         1 UNK         0.0970 
    116 H116       19.1560  -34.7894  -44.3209 H         1 UNK         0.0612 
    117 H117       17.6568  -34.2981  -43.5766 H         1 UNK         0.0612 
@<TRIPOS>BOND
     1    1    2 1    
     2    1   62 1    
     3    1   63 1    
     4    1   64 1    
     5    2    3 2    
     6    2    4 am   BACKBONE|DICT|INTERRES
     7    4    5 1    
     8    4   65 1    
     9    5    6 1    
    10    5   25 1    
    11    5   66 1    
    12    6    7 1    
    13    6   67 1    
    14    6   68 1    
    15    7    8 1    
    16    8    9 1    
    17    8   69 1    
    18    8   70 1    
    19    9   10 ar   
    20    9   14 ar   
    21   10   11 ar   
    22   10   71 1    
    23   11   12 ar   
    24   11   61 1    
    25   12   13 ar   
    26   12   72 1    
    27   13   14 ar   
    28   13   15 1    
    29   14   73 1    
    30   15   16 1    
    31   15   74 1    
    32   15   75 1    
    33   16   17 1    
    34   17   18 1    
    35   17   76 1    
    36   17   77 1    
    37   18   19 1    
    38   18   27 1    
    39   18   78 1    
    40   19   20 am   BACKBONE|DICT|INTERRES
    41   19   79 1    
    42   20   21 2    
    43   20   22 1    
    44   22   23 1    
    45   22   24 1    
    46   22   80 1    
    47   23   81 1    
    48   23   82 1    
    49   23   83 1    
    50   24   25 am   BACKBONE|DICT|INTERRES
    51   24   84 1    
    52   25   26 2    
    53   27   28 2    
    54   27   29 am   BACKBONE|DICT|INTERRES
    55   29   30 1    
    56   29   85 1    
    57   30   31 1    
    58   30   32 1    
    59   30   86 1    
    60   31   87 1    
    61   31   88 1    
    62   31   89 1    
    63   32   33 2    
    64   32   34 am   BACKBONE|DICT|INTERRES
    65   34   35 1    
    66   34   90 1    
    67   35   36 1    
    68   35   37 1    
    69   35   91 1    
    70   36   92 1    
    71   36   93 1    
    72   36   94 1    
    73   37   38 2    
    74   37   39 am   BACKBONE|DICT|INTERRES
    75   39   40 1    
    76   39   95 1    
    77   40   41 1    
    78   40   42 1    
    79   40   96 1    
    80   41   97 1    
    81   41   98 1    
    82   41   99 1    
    83   42   43 2    
    84   42   44 am   BACKBONE|DICT|INTERRES
    85   44   45 1    
    86   44  100 1    
    87   45   46 1    
    88   45   47 1    
    89   45  101 1    
    90   46  102 1    
    91   46  103 1    
    92   46  104 1    
    93   47   48 2    
    94   47   49 am   BACKBONE|DICT|INTERRES
    95   49   50 1    
    96   49  105 1    
    97   50   51 1    
    98   50   52 1    
    99   50  106 1    
   100   51  107 1    
   101   51  108 1    
   102   51  109 1    
   103   52   53 2    
   104   52   54 am   BACKBONE|DICT|INTERRES
   105   54   55 1    
   106   54  110 1    
   107   55   56 1    
   108   55   59 1    
   109   55  111 1    
   110   56   57 am   BACKBONE|DICT|INTERRES
   111   56   58 2    
   112   57  112 1    
   113   57  113 1    
   114   59   60 1    
   115   59  114 1    
   116   59  115 1    
   117   60   61 1    
   118   61  116 1    
   119   61  117 1    
@<TRIPOS>SUBSTRUCTURE
     1 UNK         1 GROUP             0       ****    0 ROOT    
