@<TRIPOS>MOLECULE
3R8
117   119    1
SMALL
USER_CHARGES


@<TRIPOS>ATOM
      1 CA         20.6025  -25.3108  -40.0626 C.3       0 UNK        -0.2013 
      2 C          19.3340  -25.4771  -40.8800 C.2       0 UNK         0.4866 
      3 O          18.2762  -24.9991  -40.4697 O.2       0 UNK        -0.5176 
      4 N          19.4345  -26.1374  -42.0388 N.am      1 UNK        -0.4884 
      5 CA         18.3204  -26.3362  -42.9735 C.3       1 UNK         0.0853 
      6 C6         17.5023  -27.6162  -42.6493 C.3       10 UNK        -0.0849 
      7 S7         15.8035  -27.5381  -43.3166 S.3       10 UNK        -0.2776 
      8 C8         15.1592  -29.1970  -42.9223 C.3       10 UNK         0.0316 
      9 C9         15.9804  -30.3550  -43.4874 C.ar      10 UNK        -0.0863 
     10 C10        16.2002  -31.4781  -42.6864 C.ar      10 UNK        -0.1009 
     11 C11        16.9112  -32.5761  -43.1733 C.ar      10 UNK        -0.0712 
     12 C12        17.4157  -32.5471  -44.4763 C.ar      10 UNK        -0.0894 
     13 C13        17.2130  -31.4299  -45.2932 C.ar      10 UNK        -0.0745 
     14 C14        16.4833  -30.3415  -44.7959 C.ar      10 UNK        -0.0972 
     15 C15        17.7313  -31.4425  -46.7292 C.3       10 UNK         0.0209 
     16 S16        18.6876  -29.9598  -47.1869 S.3       10 UNK        -0.2568 
     17 C17        20.2503  -30.2004  -46.2749 C.3       10 UNK        -0.0983 
     18 CA         21.2749  -29.0782  -46.5832 C.3       3 UNK         0.0876 
     19 N          20.7289  -27.7498  -46.2875 N.am      3 UNK        -0.4424 
     20 C          21.3038  -26.5651  -46.5296 C.2       2 UNK         0.4918 
     21 O          22.3562  -26.4321  -47.1545 O.2       2 UNK        -0.4875 
     22 CA         20.6201  -25.3107  -45.9473 C.3       2 UNK         0.0481 
     23 CB         19.7106  -24.6419  -46.9963 C.3       2 UNK        -0.1831 
     24 N          19.9132  -25.5210  -44.6705 N.am      2 UNK        -0.4498 
     25 C          18.8180  -26.2621  -44.4319 C.2       1 UNK         0.5027 
     26 O          18.2368  -26.8929  -45.3142 O.2       1 UNK        -0.4969 
     27 C          22.6167  -29.3038  -45.8518 C.2       3 UNK         0.5005 
     28 O          23.5479  -29.8580  -46.4388 O.2       3 UNK        -0.5279 
     29 N          22.7137  -28.7808  -44.6239 N.am      4 UNK        -0.4463 
     30 CA         23.9413  -28.5187  -43.8864 C.3       4 UNK         0.0283 
     31 CB         24.4102  -29.7819  -43.1484 C.3       4 UNK        -0.1875 
     32 C          23.6829  -27.3611  -42.9125 C.2       4 UNK         0.4949 
     33 O          22.5317  -26.9506  -42.7250 O.2       4 UNK        -0.5039 
     34 N          24.7719  -26.8664  -42.3118 N.am      5 UNK        -0.4663 
     35 CA         24.7710  -25.8494  -41.2617 C.3       5 UNK         0.0242 
     36 CB         26.0946  -25.0598  -41.3211 C.3       5 UNK        -0.1982 
     37 C          24.5023  -26.5096  -39.8980 C.2       5 UNK         0.5017 
     38 O          23.3545  -26.8420  -39.6117 O.2       5 UNK        -0.5012 
     39 N          25.5498  -26.7185  -39.0871 N.am      6 UNK        -0.4439 
     40 CA         25.4723  -27.2679  -37.7254 C.3       6 UNK         0.0297 
     41 CB         26.8770  -27.2764  -37.1008 C.3       6 UNK        -0.2006 
     42 C          24.8313  -28.6663  -37.6215 C.2       6 UNK         0.4892 
     43 O          24.2127  -28.9687  -36.6006 O.2       6 UNK        -0.5089 
     44 N          24.9765  -29.4816  -38.6750 N.am      7 UNK        -0.4243 
     45 CA         24.3619  -30.8070  -38.7888 C.3       7 UNK         0.0196 
     46 CB         25.2144  -31.6727  -39.7321 C.3       7 UNK        -0.2007 
     47 C          22.8979  -30.7681  -39.2689 C.2       7 UNK         0.5020 
     48 O          22.2272  -31.7974  -39.1866 O.2       7 UNK        -0.5147 
     49 N          22.4371  -29.6161  -39.7829 N.am      8 UNK        -0.4734 
     50 CA         21.1233  -29.3124  -40.3718 C.3       8 UNK         0.0238 
     51 CB         19.9968  -29.4075  -39.3255 C.3       8 UNK        -0.1912 
     52 C          20.7795  -30.1127  -41.6405 C.2       8 UNK         0.5038 
     53 O          20.5136  -29.5045  -42.6770 O.2       8 UNK        -0.5046 
     54 N          20.7875  -31.4442  -41.5306 N.am      9 UNK        -0.4200 
     55 CA         20.5105  -32.3917  -42.6166 C.3       9 UNK         0.0839 
     56 C          21.7510  -32.6896  -43.4963 C.2       9 UNK         0.5513 
     57 N          22.9528  -32.7125  -42.9336 N.am      9 UNK        -0.7519 
     58 O          21.6178  -32.9284  -44.6924 O.2       9 UNK        -0.4960 
     59 C59        19.9223  -33.7263  -42.0890 C.3       10 UNK        -0.0876 
     60 S60        18.4282  -33.5200  -41.0634 S.3       10 UNK        -0.2414 
     61 C61        17.1111  -33.7951  -42.2866 C.3       10 UNK         0.0169 
     62 H62        20.6669  -26.0849  -39.2983 H         1 UNK         0.0903 
     63 H63        20.6146  -24.3398  -39.5682 H         1 UNK         0.0903 
     64 H64        21.4870  -25.3732  -40.6949 H         1 UNK         0.0903 
     65 H65        20.3269  -26.5327  -42.3203 H         1 UNK         0.3096 
     66 H66        17.6492  -25.4794  -42.8768 H         1 UNK         0.1121 
     67 H67        17.4193  -27.7478  -41.5695 H         1 UNK         0.0849 
     68 H68        18.0130  -28.5058  -43.0225 H         1 UNK         0.0849 
     69 H69        15.0810  -29.2775  -41.8369 H         1 UNK         0.0865 
     70 H70        14.1418  -29.2752  -43.3076 H         1 UNK         0.0865 
     71 H71        15.8100  -31.5070  -41.6779 H         1 UNK         0.1346 
     72 H72        17.9633  -33.3992  -44.8554 H         1 UNK         0.1412 
     73 H73        16.3101  -29.4814  -45.4287 H         1 UNK         0.1426 
     74 H74        18.3458  -32.3246  -46.9161 H         1 UNK         0.0716 
     75 H75        16.8749  -31.5196  -47.4001 H         1 UNK         0.0716 
     76 H76        20.6605  -31.1743  -46.5472 H         1 UNK         0.0695 
     77 H77        20.0259  -30.2418  -45.2077 H         1 UNK         0.0695 
     78 H78        21.4906  -29.1013  -47.6534 H         1 UNK         0.0983 
     79 H79        19.8089  -27.7346  -45.8557 H         1 UNK         0.3095 
     80 H80        21.4210  -24.6064  -45.7170 H         1 UNK         0.0454 
     81 H81        19.2718  -23.7211  -46.6126 H         1 UNK         0.0851 
     82 H82        18.8973  -25.2962  -47.3114 H         1 UNK         0.0851 
     83 H83        20.2777  -24.3819  -47.8909 H         1 UNK         0.0851 
     84 H84        20.3311  -25.0571  -43.8755 H         1 UNK         0.2976 
     85 H85        21.8898  -28.3709  -44.1957 H         1 UNK         0.3116 
     86 H86        24.7124  -28.2000  -44.5911 H         1 UNK         0.0646 
     87 H87        24.5687  -30.6069  -43.8422 H         1 UNK         0.0847 
     88 H88        25.3555  -29.6138  -42.6324 H         1 UNK         0.0847 
     89 H89        23.6811  -30.0994  -42.4045 H         1 UNK         0.0847 
     90 H90        25.6691  -27.2702  -42.5402 H         1 UNK         0.3040 
     91 H91        23.9543  -25.1464  -41.4412 H         1 UNK         0.1015 
     92 H92        26.9705  -25.7042  -41.2371 H         1 UNK         0.0786 
     93 H93        26.1468  -24.3164  -40.5241 H         1 UNK         0.0786 
     94 H94        26.1791  -24.5181  -42.2635 H         1 UNK         0.0786 
     95 H95        26.4619  -26.4230  -39.4043 H         1 UNK         0.3172 
     96 H96        24.8480  -26.5879  -37.1420 H         1 UNK         0.0595 
     97 H97        27.5656  -27.9096  -37.6619 H         1 UNK         0.0839 
     98 H98        26.8473  -27.6555  -36.0781 H         1 UNK         0.0839 
     99 H99        27.3005  -26.2728  -37.0577 H         1 UNK         0.0839 
    100 H100       25.5138  -29.1529  -39.4638 H         1 UNK         0.2998 
    101 H101       24.3632  -31.2824  -37.8053 H         1 UNK         0.0822 
    102 H102       26.2361  -31.7695  -39.3642 H         1 UNK         0.0787 
    103 H103       24.8070  -32.6815  -39.8135 H         1 UNK         0.0787 
    104 H104       25.2592  -31.2572  -40.7384 H         1 UNK         0.0787 
    105 H105       23.0568  -28.8123  -39.7524 H         1 UNK         0.3055 
    106 H106       21.1856  -28.2686  -40.6828 H         1 UNK         0.1106 
    107 H107       20.1891  -28.7482  -38.4792 H         1 UNK         0.0828 
    108 H108       19.0403  -29.1102  -39.7577 H         1 UNK         0.0828 
    109 H109       19.8780  -30.4208  -38.9408 H         1 UNK         0.0828 
    110 H110       21.0741  -31.8366  -40.6380 H         1 UNK         0.2931 
    111 H111       19.7673  -31.9338  -43.2693 H         1 UNK         0.0412 
    112 H112       23.7557  -32.9262  -43.5032 H         1 UNK         0.3472 
    113 H113       23.0589  -32.5516  -41.9458 H         1 UNK         0.3472 
    114 H114       19.6946  -34.3980  -42.9190 H         1 UNK         0.0970 
    115 H115       20.6637  -34.2487  -41.4812 H         1 UNK         0.0970 
    116 H116       17.3307  -34.6829  -42.8816 H         1 UNK         0.0612 
    117 H117       16.1825  -34.0098  -41.7556 H         1 UNK         0.0612 
@<TRIPOS>BOND
     1    1    2 1    
     2    1   62 1    
     3    1   63 1    
     4    1   64 1    
     5    2    3 2    
     6    2    4 am   BACKBONE|DICT|INTERRES
     7    4    5 1    
     8    4   65 1    
     9    5    6 1    
    10    5   25 1    
    11    5   66 1    
    12    6    7 1    
    13    6   67 1    
    14    6   68 1    
    15    7    8 1    
    16    8    9 1    
    17    8   69 1    
    18    8   70 1    
    19    9   10 ar   
    20    9   14 ar   
    21   10   11 ar   
    22   10   71 1    
    23   11   12 ar   
    24   11   61 1    
    25   12   13 ar   
    26   12   72 1    
    27   13   14 ar   
    28   13   15 1    
    29   14   73 1    
    30   15   16 1    
    31   15   74 1    
    32   15   75 1    
    33   16   17 1    
    34   17   18 1    
    35   17   76 1    
    36   17   77 1    
    37   18   19 1    
    38   18   27 1    
    39   18   78 1    
    40   19   20 am   BACKBONE|DICT|INTERRES
    41   19   79 1    
    42   20   21 2    
    43   20   22 1    
    44   22   23 1    
    45   22   24 1    
    46   22   80 1    
    47   23   81 1    
    48   23   82 1    
    49   23   83 1    
    50   24   25 am   BACKBONE|DICT|INTERRES
    51   24   84 1    
    52   25   26 2    
    53   27   28 2    
    54   27   29 am   BACKBONE|DICT|INTERRES
    55   29   30 1    
    56   29   85 1    
    57   30   31 1    
    58   30   32 1    
    59   30   86 1    
    60   31   87 1    
    61   31   88 1    
    62   31   89 1    
    63   32   33 2    
    64   32   34 am   BACKBONE|DICT|INTERRES
    65   34   35 1    
    66   34   90 1    
    67   35   36 1    
    68   35   37 1    
    69   35   91 1    
    70   36   92 1    
    71   36   93 1    
    72   36   94 1    
    73   37   38 2    
    74   37   39 am   BACKBONE|DICT|INTERRES
    75   39   40 1    
    76   39   95 1    
    77   40   41 1    
    78   40   42 1    
    79   40   96 1    
    80   41   97 1    
    81   41   98 1    
    82   41   99 1    
    83   42   43 2    
    84   42   44 am   BACKBONE|DICT|INTERRES
    85   44   45 1    
    86   44  100 1    
    87   45   46 1    
    88   45   47 1    
    89   45  101 1    
    90   46  102 1    
    91   46  103 1    
    92   46  104 1    
    93   47   48 2    
    94   47   49 am   BACKBONE|DICT|INTERRES
    95   49   50 1    
    96   49  105 1    
    97   50   51 1    
    98   50   52 1    
    99   50  106 1    
   100   51  107 1    
   101   51  108 1    
   102   51  109 1    
   103   52   53 2    
   104   52   54 am   BACKBONE|DICT|INTERRES
   105   54   55 1    
   106   54  110 1    
   107   55   56 1    
   108   55   59 1    
   109   55  111 1    
   110   56   57 am   BACKBONE|DICT|INTERRES
   111   56   58 2    
   112   57  112 1    
   113   57  113 1    
   114   59   60 1    
   115   59  114 1    
   116   59  115 1    
   117   60   61 1    
   118   61  116 1    
   119   61  117 1    
@<TRIPOS>SUBSTRUCTURE
     1 UNK         1 GROUP             0       ****    0 ROOT    
