@<TRIPOS>MOLECULE
3R8
117   119    1
SMALL
USER_CHARGES


@<TRIPOS>ATOM
      1 CA         15.5859  -23.7265  -43.9315 C.3       0 UNK        -0.2013 
      2 C          16.5972  -24.8532  -43.7849 C.2       0 UNK         0.4866 
      3 O          17.4872  -24.9908  -44.6248 O.2       0 UNK        -0.5176 
      4 N          16.4730  -25.6592  -42.7229 N.am      1 UNK        -0.4884 
      5 CA         17.3515  -26.7925  -42.4091 C.3       1 UNK         0.0853 
      6 C6         16.6511  -27.8322  -41.5002 C.3       10 UNK        -0.0849 
      7 S7         15.2660  -28.6285  -42.3794 S.3       10 UNK        -0.2776 
      8 C8         15.9058  -30.3155  -42.6459 C.3       10 UNK         0.0316 
      9 C9         17.2226  -30.3647  -43.4174 C.ar      10 UNK        -0.0863 
     10 C10        18.3164  -31.0483  -42.8752 C.ar      10 UNK        -0.1009 
     11 C11        19.5055  -31.1709  -43.5985 C.ar      10 UNK        -0.0712 
     12 C12        19.6045  -30.5930  -44.8643 C.ar      10 UNK        -0.0894 
     13 C13        18.5365  -29.8735  -45.4055 C.ar      10 UNK        -0.0745 
     14 C14        17.3416  -29.7747  -44.6825 C.ar      10 UNK        -0.0972 
     15 C15        18.6647  -29.2379  -46.7844 C.3       10 UNK         0.0209 
     16 S16        19.3650  -27.5551  -46.7158 S.3       10 UNK        -0.2568 
     17 C17        21.1619  -27.8779  -46.6096 C.3       10 UNK        -0.0983 
     18 CA         21.9363  -26.7562  -45.8734 C.3       3 UNK         0.0876 
     19 N          21.3914  -26.4958  -44.5406 N.am      3 UNK        -0.4424 
     20 C          21.6800  -25.4408  -43.7670 C.2       2 UNK         0.4918 
     21 O          22.4897  -24.5661  -44.0807 O.2       2 UNK        -0.4875 
     22 CA         20.9030  -25.3362  -42.4458 C.3       2 UNK         0.0481 
     23 CB         20.9514  -23.9293  -41.8193 C.3       2 UNK        -0.1831 
     24 N          19.5220  -25.7373  -42.6930 N.am      2 UNK        -0.4498 
     25 C          18.6854  -26.2985  -41.8189 C.2       1 UNK         0.5027 
     26 O          18.9168  -26.4114  -40.6154 O.2       1 UNK        -0.4969 
     27 C          23.4314  -27.0944  -45.7380 C.2       3 UNK         0.5005 
     28 O          23.7621  -28.1456  -45.1880 O.2       3 UNK        -0.5279 
     29 N          24.3058  -26.1599  -46.1427 N.am      4 UNK        -0.4463 
     30 CA         25.7555  -26.1621  -45.8842 C.3       4 UNK         0.0283 
     31 CB         26.4587  -27.2726  -46.6935 C.3       4 UNK        -0.1875 
     32 C          26.0877  -26.2184  -44.3752 C.2       4 UNK         0.4949 
     33 O          27.0692  -26.8487  -43.9816 O.2       4 UNK        -0.5039 
     34 N          25.2291  -25.5788  -43.5652 N.am      5 UNK        -0.4663 
     35 CA         25.2043  -25.5424  -42.0982 C.3       5 UNK         0.0242 
     36 CB         26.5158  -24.9644  -41.5248 C.3       5 UNK        -0.1982 
     37 C          24.8053  -26.8703  -41.4194 C.2       5 UNK         0.5017 
     38 O          24.8304  -26.9263  -40.1887 O.2       5 UNK        -0.5012 
     39 N          24.4191  -27.9021  -42.1860 N.am      6 UNK        -0.4439 
     40 CA         23.9219  -29.1693  -41.6493 C.3       6 UNK         0.0297 
     41 CB         24.2177  -30.3080  -42.6384 C.3       6 UNK        -0.2006 
     42 C          22.4164  -29.0569  -41.3720 C.2       6 UNK         0.4892 
     43 O          21.6597  -28.7097  -42.2805 O.2       6 UNK        -0.5089 
     44 N          22.0207  -29.3547  -40.1291 N.am      7 UNK        -0.4243 
     45 CA         20.6341  -29.2843  -39.6563 C.3       7 UNK         0.0196 
     46 CB         20.5586  -28.2575  -38.5138 C.3       7 UNK        -0.2007 
     47 C          20.0933  -30.6395  -39.1731 C.2       7 UNK         0.5020 
     48 O          18.8754  -30.8088  -39.1218 O.2       7 UNK        -0.5147 
     49 N          20.9838  -31.5750  -38.8187 N.am      8 UNK        -0.4734 
     50 CA         20.6494  -32.8800  -38.2411 C.3       8 UNK         0.0238 
     51 CB         20.9222  -32.8519  -36.7246 C.3       8 UNK        -0.1912 
     52 C          21.4256  -33.9842  -38.9723 C.2       8 UNK         0.5038 
     53 O          22.1306  -34.7754  -38.3442 O.2       8 UNK        -0.5046 
     54 N          21.3001  -33.9871  -40.3028 N.am      9 UNK        -0.4200 
     55 CA         21.9384  -34.9386  -41.2238 C.3       9 UNK         0.0839 
     56 C          21.2800  -36.3489  -41.2806 C.2       9 UNK         0.5513 
     57 N          20.1341  -36.5778  -40.6509 N.am      9 UNK        -0.7519 
     58 O          21.8305  -37.2576  -41.8967 O.2       9 UNK        -0.4960 
     59 C59        22.1228  -34.3132  -42.6320 C.3       10 UNK        -0.0876 
     60 S60        20.5694  -33.7056  -43.3795 S.3       10 UNK        -0.2414 
     61 C61        20.6882  -31.9278  -43.0220 C.3       10 UNK         0.0169 
     62 H62        16.0971  -22.7644  -43.9482 H         1 UNK         0.0903 
     63 H63        14.8664  -23.7146  -43.1130 H         1 UNK         0.0903 
     64 H64        15.0353  -23.8364  -44.8656 H         1 UNK         0.0903 
     65 H65        15.7284  -25.4940  -42.0604 H         1 UNK         0.3096 
     66 H66        17.6028  -27.2995  -43.3439 H         1 UNK         0.1121 
     67 H67        16.2711  -27.3618  -40.5915 H         1 UNK         0.0849 
     68 H68        17.3548  -28.5993  -41.1698 H         1 UNK         0.0849 
     69 H69        16.0079  -30.8026  -41.6748 H         1 UNK         0.0865 
     70 H70        15.1588  -30.8899  -43.1951 H         1 UNK         0.0865 
     71 H71        18.2383  -31.5068  -41.8987 H         1 UNK         0.1346 
     72 H72        20.5187  -30.7135  -45.4266 H         1 UNK         0.1412 
     73 H73        16.5005  -29.2417  -45.1050 H         1 UNK         0.1426 
     74 H74        19.2759  -29.8635  -47.4368 H         1 UNK         0.0716 
     75 H75        17.6819  -29.1839  -47.2550 H         1 UNK         0.0716 
     76 H76        21.5434  -27.9963  -47.6253 H         1 UNK         0.0695 
     77 H77        21.3297  -28.8304  -46.1118 H         1 UNK         0.0695 
     78 H78        21.8328  -25.8402  -46.4593 H         1 UNK         0.0983 
     79 H79        20.7964  -27.2196  -44.1615 H         1 UNK         0.3095 
     80 H80        21.3622  -26.0416  -41.7502 H         1 UNK         0.0454 
     81 H81        20.4089  -23.8962  -40.8745 H         1 UNK         0.0851 
     82 H82        20.5165  -23.1807  -42.4827 H         1 UNK         0.0851 
     83 H83        21.9785  -23.6272  -41.6111 H         1 UNK         0.0851 
     84 H84        19.1822  -25.6016  -43.6416 H         1 UNK         0.2976 
     85 H85        23.9401  -25.3104  -46.5525 H         1 UNK         0.3116 
     86 H86        26.1341  -25.2035  -46.2415 H         1 UNK         0.0646 
     87 H87        26.2125  -27.2090  -47.7530 H         1 UNK         0.0847 
     88 H88        27.5429  -27.1907  -46.6085 H         1 UNK         0.0847 
     89 H89        26.1816  -28.2674  -46.3437 H         1 UNK         0.0847 
     90 H90        24.4375  -25.1158  -44.0027 H         1 UNK         0.3040 
     91 H91        24.4081  -24.8415  -41.8423 H         1 UNK         0.1015 
     92 H92        27.3545  -25.6485  -41.6554 H         1 UNK         0.0786 
     93 H93        26.4230  -24.7716  -40.4552 H         1 UNK         0.0786 
     94 H94        26.7751  -24.0184  -42.0003 H         1 UNK         0.0786 
     95 H95        24.3639  -27.7909  -43.1933 H         1 UNK         0.3172 
     96 H96        24.4483  -29.3990  -40.7201 H         1 UNK         0.0595 
     97 H97        25.2798  -30.3612  -42.8776 H         1 UNK         0.0839 
     98 H98        23.6711  -30.1866  -43.5739 H         1 UNK         0.0839 
     99 H99        23.9311  -31.2714  -42.2165 H         1 UNK         0.0839 
    100 H100       22.7250  -29.5771  -39.4409 H         1 UNK         0.2998 
    101 H101       19.9740  -28.9517  -40.4604 H         1 UNK         0.0822 
    102 H102       19.5313  -28.1359  -38.1680 H         1 UNK         0.0787 
    103 H103       21.1621  -28.5565  -37.6561 H         1 UNK         0.0787 
    104 H104       20.9043  -27.2771  -38.8422 H         1 UNK         0.0787 
    105 H105       21.9687  -31.3860  -38.9338 H         1 UNK         0.3055 
    106 H106       19.5899  -33.1036  -38.3873 H         1 UNK         0.1106 
    107 H107       20.3269  -32.0842  -36.2308 H         1 UNK         0.0828 
    108 H108       20.6656  -33.8056  -36.2621 H         1 UNK         0.0828 
    109 H109       21.9721  -32.6538  -36.5058 H         1 UNK         0.0828 
    110 H110       20.6798  -33.3175  -40.7314 H         1 UNK         0.2931 
    111 H111       22.9439  -35.1188  -40.8387 H         1 UNK         0.0412 
    112 H112       19.6713  -35.8413  -40.1444 H         1 UNK         0.3472 
    113 H113       19.7239  -37.4976  -40.6920 H         1 UNK         0.3472 
    114 H114       22.8379  -33.4921  -42.5735 H         1 UNK         0.0970 
    115 H115       22.5759  -35.0327  -43.3164 H         1 UNK         0.0970 
    116 H116       20.7429  -31.7639  -41.9468 H         1 UNK         0.0612 
    117 H117       21.6159  -31.5381  -43.4407 H         1 UNK         0.0612 
@<TRIPOS>BOND
     1    1    2 1    
     2    1   62 1    
     3    1   63 1    
     4    1   64 1    
     5    2    3 2    
     6    2    4 am   BACKBONE|DICT|INTERRES
     7    4    5 1    
     8    4   65 1    
     9    5    6 1    
    10    5   25 1    
    11    5   66 1    
    12    6    7 1    
    13    6   67 1    
    14    6   68 1    
    15    7    8 1    
    16    8    9 1    
    17    8   69 1    
    18    8   70 1    
    19    9   10 ar   
    20    9   14 ar   
    21   10   11 ar   
    22   10   71 1    
    23   11   12 ar   
    24   11   61 1    
    25   12   13 ar   
    26   12   72 1    
    27   13   14 ar   
    28   13   15 1    
    29   14   73 1    
    30   15   16 1    
    31   15   74 1    
    32   15   75 1    
    33   16   17 1    
    34   17   18 1    
    35   17   76 1    
    36   17   77 1    
    37   18   19 1    
    38   18   27 1    
    39   18   78 1    
    40   19   20 am   BACKBONE|DICT|INTERRES
    41   19   79 1    
    42   20   21 2    
    43   20   22 1    
    44   22   23 1    
    45   22   24 1    
    46   22   80 1    
    47   23   81 1    
    48   23   82 1    
    49   23   83 1    
    50   24   25 am   BACKBONE|DICT|INTERRES
    51   24   84 1    
    52   25   26 2    
    53   27   28 2    
    54   27   29 am   BACKBONE|DICT|INTERRES
    55   29   30 1    
    56   29   85 1    
    57   30   31 1    
    58   30   32 1    
    59   30   86 1    
    60   31   87 1    
    61   31   88 1    
    62   31   89 1    
    63   32   33 2    
    64   32   34 am   BACKBONE|DICT|INTERRES
    65   34   35 1    
    66   34   90 1    
    67   35   36 1    
    68   35   37 1    
    69   35   91 1    
    70   36   92 1    
    71   36   93 1    
    72   36   94 1    
    73   37   38 2    
    74   37   39 am   BACKBONE|DICT|INTERRES
    75   39   40 1    
    76   39   95 1    
    77   40   41 1    
    78   40   42 1    
    79   40   96 1    
    80   41   97 1    
    81   41   98 1    
    82   41   99 1    
    83   42   43 2    
    84   42   44 am   BACKBONE|DICT|INTERRES
    85   44   45 1    
    86   44  100 1    
    87   45   46 1    
    88   45   47 1    
    89   45  101 1    
    90   46  102 1    
    91   46  103 1    
    92   46  104 1    
    93   47   48 2    
    94   47   49 am   BACKBONE|DICT|INTERRES
    95   49   50 1    
    96   49  105 1    
    97   50   51 1    
    98   50   52 1    
    99   50  106 1    
   100   51  107 1    
   101   51  108 1    
   102   51  109 1    
   103   52   53 2    
   104   52   54 am   BACKBONE|DICT|INTERRES
   105   54   55 1    
   106   54  110 1    
   107   55   56 1    
   108   55   59 1    
   109   55  111 1    
   110   56   57 am   BACKBONE|DICT|INTERRES
   111   56   58 2    
   112   57  112 1    
   113   57  113 1    
   114   59   60 1    
   115   59  114 1    
   116   59  115 1    
   117   60   61 1    
   118   61  116 1    
   119   61  117 1    
@<TRIPOS>SUBSTRUCTURE
     1 UNK         1 GROUP             0       ****    0 ROOT    
