@<TRIPOS>MOLECULE
3R8
117   119    1
SMALL
USER_CHARGES


@<TRIPOS>ATOM
      1 CA         15.5772  -25.3161  -45.2179 C.3       0 UNK        -0.2013 
      2 C          15.4377  -24.8773  -43.7632 C.2       0 UNK         0.4866 
      3 O          14.9336  -23.7849  -43.5096 O.2       0 UNK        -0.5176 
      4 N          15.8626  -25.6742  -42.7755 N.am      1 UNK        -0.4884 
      5 CA         16.5274  -26.9722  -42.8997 C.3       1 UNK         0.0853 
      6 C6         15.6536  -28.1289  -42.3515 C.3       10 UNK        -0.0849 
      7 S7         14.3563  -28.5817  -43.5511 S.3       10 UNK        -0.2776 
      8 C8         15.0053  -30.1377  -44.2509 C.3       10 UNK         0.0316 
      9 C9         16.4450  -30.0199  -44.7414 C.ar      10 UNK        -0.0863 
     10 C10        17.4579  -30.7592  -44.1209 C.ar      10 UNK        -0.1009 
     11 C11        18.7784  -30.6690  -44.5685 C.ar      10 UNK        -0.0712 
     12 C12        19.0846  -29.8277  -45.6407 C.ar      10 UNK        -0.0894 
     13 C13        18.0854  -29.0776  -46.2674 C.ar      10 UNK        -0.0745 
     14 C14        16.7644  -29.1866  -45.8192 C.ar      10 UNK        -0.0972 
     15 C15        18.4230  -28.1770  -47.4482 C.3       10 UNK         0.0209 
     16 S16        19.0728  -26.5604  -46.9172 S.3       10 UNK        -0.2568 
     17 C17        20.8733  -26.8768  -46.8995 C.3       10 UNK        -0.0983 
     18 CA         21.6617  -25.8812  -46.0039 C.3       3 UNK         0.0876 
     19 N          21.1102  -25.8095  -44.6394 N.am      3 UNK        -0.4424 
     20 C          21.2204  -26.7424  -43.6816 C.2       2 UNK         0.4918 
     21 O          21.9652  -27.7164  -43.7477 O.2       2 UNK        -0.4875 
     22 CA         20.3167  -26.5745  -42.4614 C.3       2 UNK         0.0481 
     23 CB         20.6208  -25.2785  -41.6847 C.3       2 UNK        -0.1831 
     24 N          18.9347  -26.6237  -42.9236 N.am      2 UNK        -0.4498 
     25 C          17.8641  -26.8595  -42.1571 C.2       1 UNK         0.5027 
     26 O          17.8924  -26.9564  -40.9273 O.2       1 UNK        -0.4969 
     27 C          23.1899  -26.1431  -46.0462 C.2       3 UNK         0.5005 
     28 O          23.6690  -26.8551  -46.9302 O.2       3 UNK        -0.5279 
     29 N          23.9168  -25.5987  -45.0568 N.am      4 UNK        -0.4463 
     30 CA         25.3496  -25.7746  -44.7662 C.3       4 UNK         0.0283 
     31 CB         26.2313  -25.3491  -45.9590 C.3       4 UNK        -0.1875 
     32 C          25.7502  -27.1675  -44.2292 C.2       4 UNK         0.4949 
     33 O          26.9008  -27.3310  -43.8222 O.2       4 UNK        -0.5039 
     34 N          24.8194  -28.1306  -44.1883 N.am      5 UNK        -0.4663 
     35 CA         24.9848  -29.4263  -43.5215 C.3       5 UNK         0.0242 
     36 CB         24.0584  -30.4597  -44.1819 C.3       5 UNK        -0.1982 
     37 C          24.7156  -29.3067  -42.0107 C.2       5 UNK         0.5017 
     38 O          25.4150  -29.9388  -41.2179 O.2       5 UNK        -0.5012 
     39 N          23.7441  -28.4534  -41.6510 N.am      6 UNK        -0.4439 
     40 CA         23.4174  -27.9601  -40.3101 C.3       6 UNK         0.0297 
     41 CB         24.4851  -26.9422  -39.8517 C.3       6 UNK        -0.2006 
     42 C          23.1614  -29.0928  -39.3011 C.2       6 UNK         0.4892 
     43 O          22.1053  -29.7205  -39.3602 O.2       6 UNK        -0.5089 
     44 N          24.1270  -29.3455  -38.4064 N.am      7 UNK        -0.4243 
     45 CA         24.0795  -30.3774  -37.3657 C.3       7 UNK         0.0196 
     46 CB         25.3240  -30.2433  -36.4729 C.3       7 UNK        -0.2007 
     47 C          23.9502  -31.8179  -37.8961 C.2       7 UNK         0.5020 
     48 O          23.5226  -32.6931  -37.1433 O.2       7 UNK        -0.5147 
     49 N          24.3074  -32.0472  -39.1677 N.am      8 UNK        -0.4734 
     50 CA         24.1272  -33.3301  -39.8497 C.3       8 UNK         0.0238 
     51 CB         25.0450  -33.3792  -41.0811 C.3       8 UNK        -0.1912 
     52 C          22.6662  -33.6177  -40.2481 C.2       8 UNK         0.5038 
     53 O          22.3472  -34.7797  -40.5035 O.2       8 UNK        -0.5046 
     54 N          21.8130  -32.5853  -40.3150 N.am      9 UNK        -0.4200 
     55 CA         20.3865  -32.7122  -40.6492 C.3       9 UNK         0.0839 
     56 C          19.5685  -33.3271  -39.4850 C.2       9 UNK         0.5513 
     57 N          18.5634  -34.1335  -39.7948 N.am      9 UNK        -0.7519 
     58 O          19.8055  -33.0479  -38.3120 O.2       9 UNK        -0.4960 
     59 C59        19.7645  -31.3668  -41.1052 C.3       10 UNK        -0.0876 
     60 S60        20.6468  -30.6387  -42.5222 S.3       10 UNK        -0.2414 
     61 C61        19.8759  -31.5014  -43.9242 C.3       10 UNK         0.0169 
     62 H62        15.1053  -26.2838  -45.3835 H         1 UNK         0.0903 
     63 H63        15.0952  -24.5985  -45.8815 H         1 UNK         0.0903 
     64 H64        16.6263  -25.3784  -45.5037 H         1 UNK         0.0903 
     65 H65        15.7846  -25.3406  -41.8241 H         1 UNK         0.3096 
     66 H66        16.7690  -27.1972  -43.9378 H         1 UNK         0.1121 
     67 H67        15.1821  -27.8478  -41.4082 H         1 UNK         0.0849 
     68 H68        16.2555  -29.0119  -42.1286 H         1 UNK         0.0849 
     69 H69        14.9166  -30.9225  -43.4981 H         1 UNK         0.0865 
     70 H70        14.3688  -30.4437  -45.0821 H         1 UNK         0.0865 
     71 H71        17.2186  -31.4144  -43.2949 H         1 UNK         0.1346 
     72 H72        20.1048  -29.7720  -45.9905 H         1 UNK         0.1412 
     73 H73        15.9818  -28.6186  -46.3040 H         1 UNK         0.1426 
     74 H74        17.5304  -28.0072  -48.0521 H         1 UNK         0.0716 
     75 H75        19.1398  -28.6704  -48.1065 H         1 UNK         0.0716 
     76 H76        21.2234  -26.8232  -47.9321 H         1 UNK         0.0695 
     77 H77        21.0611  -27.8968  -46.5678 H         1 UNK         0.0695 
     78 H78        21.5309  -24.8867  -46.4337 H         1 UNK         0.0983 
     79 H79        20.5003  -25.0224  -44.4700 H         1 UNK         0.3095 
     80 H80        20.4891  -27.4285  -41.8028 H         1 UNK         0.0454 
     81 H81        20.0719  -25.2447  -40.7437 H         1 UNK         0.0851 
     82 H82        20.3558  -24.3866  -42.2526 H         1 UNK         0.0851 
     83 H83        21.6809  -25.2082  -41.4378 H         1 UNK         0.0851 
     84 H84        18.8197  -26.5915  -43.9296 H         1 UNK         0.2976 
     85 H85        23.4119  -25.0447  -44.3784 H         1 UNK         0.3116 
     86 H86        25.5602  -25.0803  -43.9512 H         1 UNK         0.0646 
     87 H87        26.1452  -26.0391  -46.7985 H         1 UNK         0.0847 
     88 H88        25.9690  -24.3524  -46.3132 H         1 UNK         0.0847 
     89 H89        27.2839  -25.3233  -45.6744 H         1 UNK         0.0847 
     90 H90        23.8837  -27.9095  -44.5092 H         1 UNK         0.3040 
     91 H91        26.0152  -29.7670  -43.6458 H         1 UNK         0.1015 
     92 H92        24.1151  -31.4243  -43.6788 H         1 UNK         0.0786 
     93 H93        24.3326  -30.6221  -45.2242 H         1 UNK         0.0786 
     94 H94        23.0166  -30.1422  -44.1619 H         1 UNK         0.0786 
     95 H95        23.1565  -28.1017  -42.4033 H         1 UNK         0.3172 
     96 H96        22.4736  -27.4224  -40.3997 H         1 UNK         0.0595 
     97 H97        25.4863  -27.3738  -39.8244 H         1 UNK         0.0839 
     98 H98        24.2605  -26.5524  -38.8578 H         1 UNK         0.0839 
     99 H99        24.5198  -26.0871  -40.5269 H         1 UNK         0.0839 
    100 H100       24.9750  -28.8006  -38.4622 H         1 UNK         0.2998 
    101 H101       23.1957  -30.1831  -36.7546 H         1 UNK         0.0822 
    102 H102       25.3068  -30.9766  -35.6654 H         1 UNK         0.0787 
    103 H103       25.3781  -29.2576  -36.0104 H         1 UNK         0.0787 
    104 H104       26.2434  -30.4024  -37.0378 H         1 UNK         0.0787 
    105 H105       24.6621  -31.2755  -39.7237 H         1 UNK         0.3055 
    106 H106       24.4344  -34.1276  -39.1690 H         1 UNK         0.1106 
    107 H107       26.0907  -33.2486  -40.8030 H         1 UNK         0.0828 
    108 H108       24.9634  -34.3389  -41.5929 H         1 UNK         0.0828 
    109 H109       24.7912  -32.6030  -41.8014 H         1 UNK         0.0828 
    110 H110       22.1221  -31.6580  -40.0462 H         1 UNK         0.2931 
    111 H111       20.3188  -33.3999  -41.4940 H         1 UNK         0.0412 
    112 H112       18.0090  -34.5308  -39.0530 H         1 UNK         0.3472 
    113 H113       18.3562  -34.3672  -40.7533 H         1 UNK         0.3472 
    114 H114       19.7817  -30.6433  -40.2890 H         1 UNK         0.0970 
    115 H115       18.7141  -31.4931  -41.3707 H         1 UNK         0.0970 
    116 H116       20.6522  -31.7203  -44.6588 H         1 UNK         0.0612 
    117 H117       19.4834  -32.4684  -43.6078 H         1 UNK         0.0612 
@<TRIPOS>BOND
     1    1    2 1    
     2    1   62 1    
     3    1   63 1    
     4    1   64 1    
     5    2    3 2    
     6    2    4 am   BACKBONE|DICT|INTERRES
     7    4    5 1    
     8    4   65 1    
     9    5    6 1    
    10    5   25 1    
    11    5   66 1    
    12    6    7 1    
    13    6   67 1    
    14    6   68 1    
    15    7    8 1    
    16    8    9 1    
    17    8   69 1    
    18    8   70 1    
    19    9   10 ar   
    20    9   14 ar   
    21   10   11 ar   
    22   10   71 1    
    23   11   12 ar   
    24   11   61 1    
    25   12   13 ar   
    26   12   72 1    
    27   13   14 ar   
    28   13   15 1    
    29   14   73 1    
    30   15   16 1    
    31   15   74 1    
    32   15   75 1    
    33   16   17 1    
    34   17   18 1    
    35   17   76 1    
    36   17   77 1    
    37   18   19 1    
    38   18   27 1    
    39   18   78 1    
    40   19   20 am   BACKBONE|DICT|INTERRES
    41   19   79 1    
    42   20   21 2    
    43   20   22 1    
    44   22   23 1    
    45   22   24 1    
    46   22   80 1    
    47   23   81 1    
    48   23   82 1    
    49   23   83 1    
    50   24   25 am   BACKBONE|DICT|INTERRES
    51   24   84 1    
    52   25   26 2    
    53   27   28 2    
    54   27   29 am   BACKBONE|DICT|INTERRES
    55   29   30 1    
    56   29   85 1    
    57   30   31 1    
    58   30   32 1    
    59   30   86 1    
    60   31   87 1    
    61   31   88 1    
    62   31   89 1    
    63   32   33 2    
    64   32   34 am   BACKBONE|DICT|INTERRES
    65   34   35 1    
    66   34   90 1    
    67   35   36 1    
    68   35   37 1    
    69   35   91 1    
    70   36   92 1    
    71   36   93 1    
    72   36   94 1    
    73   37   38 2    
    74   37   39 am   BACKBONE|DICT|INTERRES
    75   39   40 1    
    76   39   95 1    
    77   40   41 1    
    78   40   42 1    
    79   40   96 1    
    80   41   97 1    
    81   41   98 1    
    82   41   99 1    
    83   42   43 2    
    84   42   44 am   BACKBONE|DICT|INTERRES
    85   44   45 1    
    86   44  100 1    
    87   45   46 1    
    88   45   47 1    
    89   45  101 1    
    90   46  102 1    
    91   46  103 1    
    92   46  104 1    
    93   47   48 2    
    94   47   49 am   BACKBONE|DICT|INTERRES
    95   49   50 1    
    96   49  105 1    
    97   50   51 1    
    98   50   52 1    
    99   50  106 1    
   100   51  107 1    
   101   51  108 1    
   102   51  109 1    
   103   52   53 2    
   104   52   54 am   BACKBONE|DICT|INTERRES
   105   54   55 1    
   106   54  110 1    
   107   55   56 1    
   108   55   59 1    
   109   55  111 1    
   110   56   57 am   BACKBONE|DICT|INTERRES
   111   56   58 2    
   112   57  112 1    
   113   57  113 1    
   114   59   60 1    
   115   59  114 1    
   116   59  115 1    
   117   60   61 1    
   118   61  116 1    
   119   61  117 1    
@<TRIPOS>SUBSTRUCTURE
     1 UNK         1 GROUP             0       ****    0 ROOT    
