@<TRIPOS>MOLECULE
3R8
117   119    1
SMALL
USER_CHARGES


@<TRIPOS>ATOM
      1 CA         21.8475  -28.7477  -46.4204 C.3       0 UNK        -0.2013 
      2 C          20.4669  -28.2800  -45.9873 C.2       0 UNK         0.4866 
      3 O          20.2586  -27.9997  -44.8077 O.2       0 UNK        -0.5176 
      4 N          19.5280  -28.1530  -46.9364 N.am      1 UNK        -0.4884 
      5 CA         18.1177  -27.7907  -46.7091 C.3       1 UNK         0.0853 
      6 C6         17.2307  -28.2497  -47.8997 C.3       10 UNK        -0.0849 
      7 S7         15.4555  -28.4439  -47.5030 S.3       10 UNK        -0.2776 
      8 C8         15.3574  -30.1496  -46.8610 C.3       10 UNK         0.0316 
      9 C9         16.0761  -30.3207  -45.5275 C.ar      10 UNK        -0.0863 
     10 C10        17.0757  -31.2874  -45.3890 C.ar      10 UNK        -0.1009 
     11 C11        17.7447  -31.4490  -44.1727 C.ar      10 UNK        -0.0712 
     12 C12        17.4256  -30.6174  -43.0936 C.ar      10 UNK        -0.0894 
     13 C13        16.4371  -29.6364  -43.2196 C.ar      10 UNK        -0.0745 
     14 C14        15.7481  -29.5139  -44.4317 C.ar      10 UNK        -0.0972 
     15 C15        16.0936  -28.7297  -42.0417 C.3       10 UNK         0.0209 
     16 S16        16.2369  -26.9620  -42.4722 S.3       10 UNK        -0.2568 
     17 C17        17.5549  -26.3483  -41.3637 C.3       10 UNK        -0.0983 
     18 CA         18.9793  -26.4143  -41.9824 C.3       3 UNK         0.0876 
     19 N          19.0907  -25.8463  -43.3309 N.am      3 UNK        -0.4424 
     20 C          18.7502  -24.6219  -43.7682 C.2       2 UNK         0.4918 
     21 O          18.2516  -23.7396  -43.0680 O.2       2 UNK        -0.4875 
     22 CA         18.9875  -24.3350  -45.2684 C.3       2 UNK         0.0481 
     23 CB         20.3266  -23.6082  -45.4699 C.3       2 UNK        -0.1831 
     24 N          18.9756  -25.5568  -46.0783 N.am      2 UNK        -0.4498 
     25 C          17.8894  -26.3186  -46.2734 C.2       1 UNK         0.5027 
     26 O          16.7493  -25.9074  -46.0567 O.2       1 UNK        -0.4969 
     27 C          20.0475  -25.8368  -41.0273 C.2       3 UNK         0.5005 
     28 O          20.5405  -24.7242  -41.2304 O.2       3 UNK        -0.5279 
     29 N          20.4037  -26.6266  -40.0020 N.am      4 UNK        -0.4463 
     30 CA         21.4973  -26.3938  -39.0466 C.3       4 UNK         0.0283 
     31 CB         21.2209  -25.1631  -38.1566 C.3       4 UNK        -0.1875 
     32 C          22.8657  -26.3417  -39.7556 C.2       4 UNK         0.4949 
     33 O          23.6848  -25.4645  -39.4800 O.2       4 UNK        -0.5039 
     34 N          23.0704  -27.2898  -40.6803 N.am      5 UNK        -0.4663 
     35 CA         24.2187  -27.3580  -41.5905 C.3       5 UNK         0.0242 
     36 CB         23.8437  -28.2654  -42.7754 C.3       5 UNK        -0.1982 
     37 C          25.5320  -27.8396  -40.9430 C.2       5 UNK         0.5017 
     38 O          26.5604  -27.8272  -41.6202 O.2       5 UNK        -0.5012 
     39 N          25.4752  -28.2790  -39.6754 N.am      6 UNK        -0.4439 
     40 CA         26.5625  -28.8911  -38.8955 C.3       6 UNK         0.0297 
     41 CB         27.7028  -27.8832  -38.6353 C.3       6 UNK        -0.2006 
     42 C          27.0531  -30.2181  -39.5120 C.2       6 UNK         0.4892 
     43 O          28.2530  -30.4996  -39.5227 O.2       6 UNK        -0.5089 
     44 N          26.0965  -31.0050  -40.0137 N.am      7 UNK        -0.4243 
     45 CA         26.2739  -32.3150  -40.6313 C.3       7 UNK         0.0196 
     46 CB         26.6965  -32.1494  -42.1078 C.3       7 UNK        -0.2007 
     47 C          24.9636  -33.0943  -40.4370 C.2       7 UNK         0.5020 
     48 O          24.2976  -32.9046  -39.4165 O.2       7 UNK        -0.5147 
     49 N          24.5735  -33.9171  -41.4209 N.am      8 UNK        -0.4734 
     50 CA         23.3127  -34.6757  -41.4298 C.3       8 UNK         0.0238 
     51 CB         23.2753  -35.5853  -42.6687 C.3       8 UNK        -0.1912 
     52 C          22.0481  -33.7948  -41.3734 C.2       8 UNK         0.5038 
     53 O          21.0287  -34.2389  -40.8441 O.2       8 UNK        -0.5046 
     54 N          22.1553  -32.5663  -41.8937 N.am      9 UNK        -0.4200 
     55 CA         21.1361  -31.5099  -41.8171 C.3       9 UNK         0.0839 
     56 C          21.4252  -30.4668  -40.6994 C.2       9 UNK         0.5513 
     57 N          22.3286  -30.7193  -39.7589 N.am      9 UNK        -0.7519 
     58 O          20.8227  -29.3969  -40.6806 O.2       9 UNK        -0.4960 
     59 C59        20.8993  -30.8369  -43.1965 C.3       10 UNK        -0.0876 
     60 S60        20.4521  -32.0100  -44.5227 S.3       10 UNK        -0.2414 
     61 C61        18.7862  -32.5482  -44.0218 C.3       10 UNK         0.0169 
     62 H62        21.9323  -28.8205  -47.5044 H         1 UNK         0.0903 
     63 H63        22.6080  -28.0524  -46.0663 H         1 UNK         0.0903 
     64 H64        22.0599  -29.7285  -45.9969 H         1 UNK         0.0903 
     65 H65        19.7716  -28.3635  -47.8944 H         1 UNK         0.3096 
     66 H66        17.8185  -28.3674  -45.8346 H         1 UNK         0.1121 
     67 H67        17.3259  -27.5515  -48.7332 H         1 UNK         0.0849 
     68 H68        17.5826  -29.2104  -48.2793 H         1 UNK         0.0849 
     69 H69        14.3075  -30.4132  -46.7265 H         1 UNK         0.0865 
     70 H70        15.7503  -30.8367  -47.6121 H         1 UNK         0.0865 
     71 H71        17.3314  -31.9236  -46.2256 H         1 UNK         0.1346 
     72 H72        17.9450  -30.7391  -42.1531 H         1 UNK         0.1412 
     73 H73        14.9759  -28.7631  -44.5335 H         1 UNK         0.1426 
     74 H74        16.7228  -28.9592  -41.1809 H         1 UNK         0.0716 
     75 H75        15.0673  -28.9313  -41.7321 H         1 UNK         0.0716 
     76 H76        17.5165  -26.9037  -40.4253 H         1 UNK         0.0695 
     77 H77        17.3061  -25.3181  -41.1034 H         1 UNK         0.0695 
     78 H78        19.2240  -27.4700  -42.1163 H         1 UNK         0.0983 
     79 H79        19.5062  -26.4897  -44.0001 H         1 UNK         0.3095 
     80 H80        18.1860  -23.6811  -45.6180 H         1 UNK         0.0454 
     81 H81        21.1703  -24.2156  -45.1396 H         1 UNK         0.0851 
     82 H82        20.3531  -22.6789  -44.8992 H         1 UNK         0.0851 
     83 H83        20.4857  -23.3491  -46.5166 H         1 UNK         0.0851 
     84 H84        19.8720  -25.9702  -46.2911 H         1 UNK         0.2976 
     85 H85        20.0135  -27.5628  -39.9736 H         1 UNK         0.3116 
     86 H86        21.5244  -27.2686  -38.3953 H         1 UNK         0.0646 
     87 H87        20.2489  -25.2359  -37.6691 H         1 UNK         0.0847 
     88 H88        21.9717  -25.0759  -37.3704 H         1 UNK         0.0847 
     89 H89        21.2421  -24.2335  -38.7259 H         1 UNK         0.0847 
     90 H90        22.3334  -27.9717  -40.8242 H         1 UNK         0.3040 
     91 H91        24.4038  -26.3524  -41.9749 H         1 UNK         0.1015 
     92 H92        23.7221  -29.3020  -42.4607 H         1 UNK         0.0786 
     93 H93        24.6201  -28.2496  -43.5414 H         1 UNK         0.0786 
     94 H94        22.9166  -27.9422  -43.2506 H         1 UNK         0.0786 
     95 H95        24.5777  -28.2230  -39.2164 H         1 UNK         0.3172 
     96 H96        26.1318  -29.1509  -37.9274 H         1 UNK         0.0595 
     97 H97        28.2356  -27.6253  -39.5510 H         1 UNK         0.0839 
     98 H98        28.4360  -28.2954  -37.9410 H         1 UNK         0.0839 
     99 H99        27.3245  -26.9604  -38.1957 H         1 UNK         0.0839 
    100 H100       25.1336  -30.7229  -39.8920 H         1 UNK         0.2998 
    101 H101       27.0532  -32.8595  -40.0941 H         1 UNK         0.0822 
    102 H102       26.9253  -33.1101  -42.5701 H         1 UNK         0.0787 
    103 H103       25.9185  -31.6656  -42.6999 H         1 UNK         0.0787 
    104 H104       27.5970  -31.5405  -42.1925 H         1 UNK         0.0787 
    105 H105       25.1713  -34.0188  -42.2290 H         1 UNK         0.3055 
    106 H106       23.3014  -35.3071  -40.5384 H         1 UNK         0.1106 
    107 H107       24.1135  -36.2822  -42.6769 H         1 UNK         0.0828 
    108 H108       22.3617  -36.1815  -42.6871 H         1 UNK         0.0828 
    109 H109       23.3055  -35.0093  -43.5945 H         1 UNK         0.0828 
    110 H110       23.0372  -32.3020  -42.3050 H         1 UNK         0.2931 
    111 H111       20.1901  -31.9562  -41.5120 H         1 UNK         0.0412 
    112 H112       22.8053  -31.6131  -39.7153 H         1 UNK         0.3472 
    113 H113       22.4495  -30.0568  -39.0118 H         1 UNK         0.3472 
    114 H114       20.1221  -30.0749  -43.1324 H         1 UNK         0.0970 
    115 H115       21.7968  -30.3079  -43.5162 H         1 UNK         0.0970 
    116 H116       18.5046  -33.4009  -44.6415 H         1 UNK         0.0612 
    117 H117       18.8023  -32.9244  -42.9990 H         1 UNK         0.0612 
@<TRIPOS>BOND
     1    1    2 1    
     2    1   62 1    
     3    1   63 1    
     4    1   64 1    
     5    2    3 2    
     6    2    4 am   BACKBONE|DICT|INTERRES
     7    4    5 1    
     8    4   65 1    
     9    5    6 1    
    10    5   25 1    
    11    5   66 1    
    12    6    7 1    
    13    6   67 1    
    14    6   68 1    
    15    7    8 1    
    16    8    9 1    
    17    8   69 1    
    18    8   70 1    
    19    9   10 ar   
    20    9   14 ar   
    21   10   11 ar   
    22   10   71 1    
    23   11   12 ar   
    24   11   61 1    
    25   12   13 ar   
    26   12   72 1    
    27   13   14 ar   
    28   13   15 1    
    29   14   73 1    
    30   15   16 1    
    31   15   74 1    
    32   15   75 1    
    33   16   17 1    
    34   17   18 1    
    35   17   76 1    
    36   17   77 1    
    37   18   19 1    
    38   18   27 1    
    39   18   78 1    
    40   19   20 am   BACKBONE|DICT|INTERRES
    41   19   79 1    
    42   20   21 2    
    43   20   22 1    
    44   22   23 1    
    45   22   24 1    
    46   22   80 1    
    47   23   81 1    
    48   23   82 1    
    49   23   83 1    
    50   24   25 am   BACKBONE|DICT|INTERRES
    51   24   84 1    
    52   25   26 2    
    53   27   28 2    
    54   27   29 am   BACKBONE|DICT|INTERRES
    55   29   30 1    
    56   29   85 1    
    57   30   31 1    
    58   30   32 1    
    59   30   86 1    
    60   31   87 1    
    61   31   88 1    
    62   31   89 1    
    63   32   33 2    
    64   32   34 am   BACKBONE|DICT|INTERRES
    65   34   35 1    
    66   34   90 1    
    67   35   36 1    
    68   35   37 1    
    69   35   91 1    
    70   36   92 1    
    71   36   93 1    
    72   36   94 1    
    73   37   38 2    
    74   37   39 am   BACKBONE|DICT|INTERRES
    75   39   40 1    
    76   39   95 1    
    77   40   41 1    
    78   40   42 1    
    79   40   96 1    
    80   41   97 1    
    81   41   98 1    
    82   41   99 1    
    83   42   43 2    
    84   42   44 am   BACKBONE|DICT|INTERRES
    85   44   45 1    
    86   44  100 1    
    87   45   46 1    
    88   45   47 1    
    89   45  101 1    
    90   46  102 1    
    91   46  103 1    
    92   46  104 1    
    93   47   48 2    
    94   47   49 am   BACKBONE|DICT|INTERRES
    95   49   50 1    
    96   49  105 1    
    97   50   51 1    
    98   50   52 1    
    99   50  106 1    
   100   51  107 1    
   101   51  108 1    
   102   51  109 1    
   103   52   53 2    
   104   52   54 am   BACKBONE|DICT|INTERRES
   105   54   55 1    
   106   54  110 1    
   107   55   56 1    
   108   55   59 1    
   109   55  111 1    
   110   56   57 am   BACKBONE|DICT|INTERRES
   111   56   58 2    
   112   57  112 1    
   113   57  113 1    
   114   59   60 1    
   115   59  114 1    
   116   59  115 1    
   117   60   61 1    
   118   61  116 1    
   119   61  117 1    
@<TRIPOS>SUBSTRUCTURE
     1 UNK         1 GROUP             0       ****    0 ROOT    
