@<TRIPOS>MOLECULE
3R8
117   119    1
SMALL
USER_CHARGES


@<TRIPOS>ATOM
      1 CA         15.1305  -23.1543  -45.2211 C.3       0 UNK        -0.2013 
      2 C          16.1810  -24.2458  -45.0848 C.2       0 UNK         0.4866 
      3 O          16.0474  -25.1196  -44.2285 O.2       0 UNK        -0.5176 
      4 N          17.2379  -24.1913  -45.9073 N.am      1 UNK        -0.4884 
      5 CA         18.3626  -25.1391  -46.0069 C.3       1 UNK         0.0853 
      6 C6         17.9071  -26.5898  -46.3234 C.3       10 UNK        -0.0849 
      7 S7         19.0918  -27.4744  -47.3925 S.3       10 UNK        -0.2776 
      8 C8         18.4289  -29.1696  -47.3440 C.3       10 UNK         0.0316 
      9 C9         18.7254  -29.8483  -46.0156 C.ar      10 UNK        -0.0863 
     10 C10        19.9736  -30.4353  -45.7906 C.ar      10 UNK        -0.1009 
     11 C11        20.2594  -31.0462  -44.5666 C.ar      10 UNK        -0.0712 
     12 C12        19.2911  -31.0581  -43.5582 C.ar      10 UNK        -0.0894 
     13 C13        18.0365  -30.4841  -43.7771 C.ar      10 UNK        -0.0745 
     14 C14        17.7560  -29.8887  -45.0099 C.ar      10 UNK        -0.0972 
     15 C15        16.9770  -30.5017  -42.6889 C.3       10 UNK         0.0209 
     16 S16        16.9088  -28.9094  -41.8128 S.3       10 UNK        -0.2568 
     17 C17        18.2147  -29.0990  -40.5491 C.3       10 UNK        -0.0983 
     18 CA         19.5401  -28.3409  -40.8494 C.3       3 UNK         0.0876 
     19 N          19.2825  -26.9659  -41.3113 N.am      3 UNK        -0.4424 
     20 C          20.1330  -26.1089  -41.8925 C.2       2 UNK         0.4918 
     21 O          21.3324  -26.3368  -42.0750 O.2       2 UNK        -0.4875 
     22 CA         19.5239  -24.7609  -42.3108 C.3       2 UNK         0.0481 
     23 CB         20.5542  -23.6127  -42.3050 C.3       2 UNK        -0.1831 
     24 N          18.8307  -24.8590  -43.5987 N.am      2 UNK        -0.4498 
     25 C          19.3495  -25.0865  -44.8151 C.2       1 UNK         0.5027 
     26 O          20.5537  -25.2107  -45.0368 O.2       1 UNK        -0.4969 
     27 C          20.5137  -28.4292  -39.6406 C.2       3 UNK         0.5005 
     28 O          20.2715  -29.1902  -38.7005 O.2       3 UNK        -0.5279 
     29 N          21.5918  -27.6441  -39.6759 N.am      4 UNK        -0.4463 
     30 CA         22.6858  -27.6059  -38.7127 C.3       4 UNK         0.0283 
     31 CB         22.3036  -26.7820  -37.4701 C.3       4 UNK        -0.1875 
     32 C          23.9310  -27.0450  -39.4047 C.2       4 UNK         0.4949 
     33 O          24.9874  -27.6722  -39.3490 O.2       4 UNK        -0.5039 
     34 N          23.7769  -25.9063  -40.0992 N.am      5 UNK        -0.4663 
     35 CA         24.8252  -25.2863  -40.9187 C.3       5 UNK         0.0242 
     36 CB         24.3864  -23.8746  -41.3369 C.3       5 UNK        -0.1982 
     37 C          25.1898  -26.1295  -42.1532 C.2       5 UNK         0.5017 
     38 O          26.3649  -26.2002  -42.5123 O.2       5 UNK        -0.5012 
     39 N          24.1861  -26.7931  -42.7435 N.am      6 UNK        -0.4439 
     40 CA         24.3402  -27.7767  -43.8195 C.3       6 UNK         0.0297 
     41 CB         23.0350  -27.8102  -44.6362 C.3       6 UNK        -0.2006 
     42 C          24.6918  -29.1904  -43.3068 C.2       6 UNK         0.4892 
     43 O          24.7280  -30.1152  -44.1182 O.2       6 UNK        -0.5089 
     44 N          24.9151  -29.3348  -41.9901 N.am      7 UNK        -0.4243 
     45 CA         24.8935  -30.5637  -41.1859 C.3       7 UNK         0.0196 
     46 CB         25.7618  -31.6925  -41.7855 C.3       7 UNK        -0.2007 
     47 C          23.4440  -31.0023  -40.9068 C.2       7 UNK         0.5020 
     48 O          22.5005  -30.3189  -41.3079 O.2       7 UNK        -0.5147 
     49 N          23.2817  -32.1146  -40.1807 N.am      8 UNK        -0.4734 
     50 CA         21.9692  -32.6345  -39.7829 C.3       8 UNK         0.0238 
     51 CB         22.1272  -33.4832  -38.5106 C.3       8 UNK        -0.1912 
     52 C          21.2696  -33.4496  -40.8845 C.2       8 UNK         0.5038 
     53 O          20.0396  -33.5008  -40.8903 O.2       8 UNK        -0.5046 
     54 N          22.0529  -34.0873  -41.7696 N.am      9 UNK        -0.4200 
     55 CA         21.5960  -35.0308  -42.8116 C.3       9 UNK         0.0839 
     56 C          20.9171  -36.3236  -42.2546 C.2       9 UNK         0.5513 
     57 N          21.1581  -36.7087  -41.0066 N.am      9 UNK        -0.7519 
     58 O          20.1910  -37.0125  -42.9669 O.2       9 UNK        -0.4960 
     59 C59        20.7709  -34.3433  -43.9423 C.3       10 UNK        -0.0876 
     60 S60        21.8036  -33.3171  -45.0431 S.3       10 UNK        -0.2414 
     61 C61        21.6290  -31.6574  -44.3253 C.3       10 UNK         0.0169 
     62 H62        15.3764  -22.4462  -46.0122 H         1 UNK         0.0903 
     63 H63        14.1608  -23.5952  -45.4503 H         1 UNK         0.0903 
     64 H64        15.0408  -22.6013  -44.2864 H         1 UNK         0.0903 
     65 H65        17.2941  -23.4171  -46.5558 H         1 UNK         0.3096 
     66 H66        18.9287  -24.7747  -46.8664 H         1 UNK         0.1121 
     67 H67        16.9536  -26.5794  -46.8540 H         1 UNK         0.0849 
     68 H68        17.7291  -27.1507  -45.4046 H         1 UNK         0.0849 
     69 H69        17.3558  -29.1521  -47.5412 H         1 UNK         0.0865 
     70 H70        18.8760  -29.7467  -48.1550 H         1 UNK         0.0865 
     71 H71        20.7280  -30.4087  -46.5651 H         1 UNK         0.1346 
     72 H72        19.5148  -31.5114  -42.6025 H         1 UNK         0.1412 
     73 H73        16.7863  -29.4394  -45.1768 H         1 UNK         0.1426 
     74 H74        17.1488  -31.3180  -41.9855 H         1 UNK         0.0716 
     75 H75        16.0017  -30.6933  -43.1389 H         1 UNK         0.0716 
     76 H76        18.4165  -30.1611  -40.3976 H         1 UNK         0.0695 
     77 H77        17.7850  -28.7425  -39.6108 H         1 UNK         0.0695 
     78 H78        20.0371  -28.8599  -41.6722 H         1 UNK         0.0983 
     79 H79        18.3198  -26.6758  -41.2183 H         1 UNK         0.3095 
     80 H80        18.7608  -24.5063  -41.5737 H         1 UNK         0.0454 
     81 H81        20.0850  -22.6599  -42.5493 H         1 UNK         0.0851 
     82 H82        21.3606  -23.7788  -43.0189 H         1 UNK         0.0851 
     83 H83        21.0104  -23.5061  -41.3204 H         1 UNK         0.0851 
     84 H84        17.8149  -24.8302  -43.5585 H         1 UNK         0.2976 
     85 H85        21.7184  -27.1043  -40.5299 H         1 UNK         0.3116 
     86 H86        22.9114  -28.6288  -38.4028 H         1 UNK         0.0646 
     87 H87        22.0198  -25.7616  -37.7291 H         1 UNK         0.0847 
     88 H88        23.1381  -26.7231  -36.7702 H         1 UNK         0.0847 
     89 H89        21.4675  -27.2349  -36.9371 H         1 UNK         0.0847 
     90 H90        22.8829  -25.4376  -40.0813 H         1 UNK         0.3040 
     91 H91        25.7239  -25.1972  -40.3039 H         1 UNK         0.1015 
     92 H92        24.1615  -23.2528  -40.4701 H         1 UNK         0.0786 
     93 H93        23.5029  -23.8999  -41.9740 H         1 UNK         0.0786 
     94 H94        25.1761  -23.3731  -41.8981 H         1 UNK         0.0786 
     95 H95        23.2375  -26.6423  -42.4106 H         1 UNK         0.3172 
     96 H96        25.1478  -27.4582  -44.4815 H         1 UNK         0.0595 
     97 H97        23.1245  -28.4697  -45.5002 H         1 UNK         0.0839 
     98 H98        22.1952  -28.1705  -44.0395 H         1 UNK         0.0839 
     99 H99        22.7753  -26.8209  -45.0129 H         1 UNK         0.0839 
    100 H100       24.8789  -28.4909  -41.4335 H         1 UNK         0.2998 
    101 H101       25.3253  -30.2885  -40.2226 H         1 UNK         0.0822 
    102 H102       26.7320  -31.3165  -42.1102 H         1 UNK         0.0787 
    103 H103       25.9530  -32.4755  -41.0516 H         1 UNK         0.0787 
    104 H104       25.2814  -32.1657  -42.6428 H         1 UNK         0.0787 
    105 H105       24.0957  -32.6168  -39.8556 H         1 UNK         0.3055 
    106 H106       21.3147  -31.7921  -39.5426 H         1 UNK         0.1106 
    107 H107       21.1636  -33.8747  -38.1806 H         1 UNK         0.0828 
    108 H108       22.7890  -34.3355  -38.6680 H         1 UNK         0.0828 
    109 H109       22.5306  -32.8916  -37.6885 H         1 UNK         0.0828 
    110 H110       23.0525  -33.9809  -41.6839 H         1 UNK         0.2931 
    111 H111       22.5108  -35.4073  -43.2709 H         1 UNK         0.0412 
    112 H112       20.7259  -37.5507  -40.6593 H         1 UNK         0.3472 
    113 H113       21.7675  -36.1720  -40.4115 H         1 UNK         0.3472 
    114 H114       19.9422  -33.7655  -43.5351 H         1 UNK         0.0970 
    115 H115       20.3083  -35.0868  -44.5931 H         1 UNK         0.0970 
    116 H116       22.3888  -31.0090  -44.7599 H         1 UNK         0.0612 
    117 H117       21.8426  -31.7128  -43.2623 H         1 UNK         0.0612 
@<TRIPOS>BOND
     1    1    2 1    
     2    1   62 1    
     3    1   63 1    
     4    1   64 1    
     5    2    3 2    
     6    2    4 am   BACKBONE|DICT|INTERRES
     7    4    5 1    
     8    4   65 1    
     9    5    6 1    
    10    5   25 1    
    11    5   66 1    
    12    6    7 1    
    13    6   67 1    
    14    6   68 1    
    15    7    8 1    
    16    8    9 1    
    17    8   69 1    
    18    8   70 1    
    19    9   10 ar   
    20    9   14 ar   
    21   10   11 ar   
    22   10   71 1    
    23   11   12 ar   
    24   11   61 1    
    25   12   13 ar   
    26   12   72 1    
    27   13   14 ar   
    28   13   15 1    
    29   14   73 1    
    30   15   16 1    
    31   15   74 1    
    32   15   75 1    
    33   16   17 1    
    34   17   18 1    
    35   17   76 1    
    36   17   77 1    
    37   18   19 1    
    38   18   27 1    
    39   18   78 1    
    40   19   20 am   BACKBONE|DICT|INTERRES
    41   19   79 1    
    42   20   21 2    
    43   20   22 1    
    44   22   23 1    
    45   22   24 1    
    46   22   80 1    
    47   23   81 1    
    48   23   82 1    
    49   23   83 1    
    50   24   25 am   BACKBONE|DICT|INTERRES
    51   24   84 1    
    52   25   26 2    
    53   27   28 2    
    54   27   29 am   BACKBONE|DICT|INTERRES
    55   29   30 1    
    56   29   85 1    
    57   30   31 1    
    58   30   32 1    
    59   30   86 1    
    60   31   87 1    
    61   31   88 1    
    62   31   89 1    
    63   32   33 2    
    64   32   34 am   BACKBONE|DICT|INTERRES
    65   34   35 1    
    66   34   90 1    
    67   35   36 1    
    68   35   37 1    
    69   35   91 1    
    70   36   92 1    
    71   36   93 1    
    72   36   94 1    
    73   37   38 2    
    74   37   39 am   BACKBONE|DICT|INTERRES
    75   39   40 1    
    76   39   95 1    
    77   40   41 1    
    78   40   42 1    
    79   40   96 1    
    80   41   97 1    
    81   41   98 1    
    82   41   99 1    
    83   42   43 2    
    84   42   44 am   BACKBONE|DICT|INTERRES
    85   44   45 1    
    86   44  100 1    
    87   45   46 1    
    88   45   47 1    
    89   45  101 1    
    90   46  102 1    
    91   46  103 1    
    92   46  104 1    
    93   47   48 2    
    94   47   49 am   BACKBONE|DICT|INTERRES
    95   49   50 1    
    96   49  105 1    
    97   50   51 1    
    98   50   52 1    
    99   50  106 1    
   100   51  107 1    
   101   51  108 1    
   102   51  109 1    
   103   52   53 2    
   104   52   54 am   BACKBONE|DICT|INTERRES
   105   54   55 1    
   106   54  110 1    
   107   55   56 1    
   108   55   59 1    
   109   55  111 1    
   110   56   57 am   BACKBONE|DICT|INTERRES
   111   56   58 2    
   112   57  112 1    
   113   57  113 1    
   114   59   60 1    
   115   59  114 1    
   116   59  115 1    
   117   60   61 1    
   118   61  116 1    
   119   61  117 1    
@<TRIPOS>SUBSTRUCTURE
     1 UNK         1 GROUP             0       ****    0 ROOT    
