@<TRIPOS>MOLECULE
3R8
117   119    1
SMALL
USER_CHARGES


@<TRIPOS>ATOM
      1 CA         12.1097  -26.3315  -41.8121 C.3       0 UNK        -0.2013 
      2 C          13.5703  -26.0767  -42.1537 C.2       0 UNK         0.4866 
      3 O          14.3125  -25.5549  -41.3207 O.2       0 UNK        -0.5176 
      4 N          13.9855  -26.4303  -43.3756 N.am      1 UNK        -0.4884 
      5 CA         15.3692  -26.3398  -43.8520 C.3       1 UNK         0.0853 
      6 C6         15.4439  -26.3328  -45.4031 C.3       10 UNK        -0.0849 
      7 S7         14.5512  -27.7102  -46.2121 S.3       10 UNK        -0.2776 
      8 C8         15.7861  -28.3311  -47.4025 C.3       10 UNK         0.0316 
      9 C9         17.0010  -28.9537  -46.7258 C.ar      10 UNK        -0.0863 
     10 C10        16.8453  -30.0367  -45.8569 C.ar      10 UNK        -0.1009 
     11 C11        17.9495  -30.6135  -45.2258 C.ar      10 UNK        -0.0712 
     12 C12        19.2264  -30.1066  -45.4987 C.ar      10 UNK        -0.0894 
     13 C13        19.4061  -29.0258  -46.3699 C.ar      10 UNK        -0.0745 
     14 C14        18.2826  -28.4538  -46.9753 C.ar      10 UNK        -0.0972 
     15 C15        20.7834  -28.4213  -46.6558 C.3       10 UNK         0.0209 
     16 S16        22.2123  -29.5400  -46.3954 S.3       10 UNK        -0.2568 
     17 C17        22.7684  -29.3976  -44.6506 C.3       10 UNK        -0.0983 
     18 CA         22.2328  -28.2186  -43.7942 C.3       3 UNK         0.0876 
     19 N          20.8863  -28.4761  -43.2875 N.am      3 UNK        -0.4424 
     20 C          19.9315  -27.5483  -43.1786 C.2       2 UNK         0.4918 
     21 O          20.0821  -26.3691  -43.5117 O.2       2 UNK        -0.4875 
     22 CA         18.6014  -27.9948  -42.5686 C.3       2 UNK         0.0481 
     23 CB         18.6466  -27.8997  -41.0347 C.3       2 UNK        -0.1831 
     24 N          17.5561  -27.1250  -43.0966 N.am      2 UNK        -0.4498 
     25 C          16.2605  -27.4306  -43.2163 C.2       1 UNK         0.5027 
     26 O          15.7699  -28.5036  -42.8540 O.2       1 UNK        -0.4969 
     27 C          23.1114  -27.9172  -42.5672 C.2       3 UNK         0.5005 
     28 O          23.9476  -28.7353  -42.1776 O.2       3 UNK        -0.5279 
     29 N          22.8781  -26.7448  -41.9584 N.am      4 UNK        -0.4463 
     30 CA         23.5037  -26.2778  -40.7163 C.3       4 UNK         0.0283 
     31 CB         22.8593  -24.9480  -40.2951 C.3       4 UNK        -0.1875 
     32 C          25.0346  -26.1362  -40.7807 C.2       4 UNK         0.4949 
     33 O          25.6879  -26.2564  -39.7456 O.2       4 UNK        -0.5039 
     34 N          25.5834  -25.9256  -41.9859 N.am      5 UNK        -0.4663 
     35 CA         27.0259  -25.9015  -42.2510 C.3       5 UNK         0.0242 
     36 CB         27.2722  -25.3787  -43.6753 C.3       5 UNK        -0.1982 
     37 C          27.6993  -27.2730  -42.0551 C.2       5 UNK         0.5017 
     38 O          28.8583  -27.3207  -41.6421 O.2       5 UNK        -0.5012 
     39 N          26.9582  -28.3536  -42.3370 N.am      6 UNK        -0.4439 
     40 CA         27.3672  -29.7393  -42.0925 C.3       6 UNK         0.0297 
     41 CB         26.8450  -30.6147  -43.2450 C.3       6 UNK        -0.2006 
     42 C          26.8379  -30.2714  -40.7475 C.2       6 UNK         0.4892 
     43 O          27.3020  -31.3194  -40.2977 O.2       6 UNK        -0.5089 
     44 N          25.8606  -29.5624  -40.1604 N.am      7 UNK        -0.4243 
     45 CA         25.0208  -29.9437  -39.0203 C.3       7 UNK         0.0196 
     46 CB         25.8541  -30.0742  -37.7277 C.3       7 UNK        -0.2007 
     47 C          24.1693  -31.1905  -39.3315 C.2       7 UNK         0.5020 
     48 O          23.9825  -32.0416  -38.4600 O.2       7 UNK        -0.5147 
     49 N          23.6865  -31.2857  -40.5779 N.am      8 UNK        -0.4734 
     50 CA         22.9480  -32.4347  -41.0968 C.3       8 UNK         0.0238 
     51 CB         23.5669  -32.8645  -42.4366 C.3       8 UNK        -0.1912 
     52 C          21.4628  -32.0918  -41.2664 C.2       8 UNK         0.5038 
     53 O          21.1381  -31.0013  -41.7471 O.2       8 UNK        -0.5046 
     54 N          20.6127  -33.0561  -40.8828 N.am      9 UNK        -0.4200 
     55 CA         19.1394  -33.0822  -40.9695 C.3       9 UNK         0.0839 
     56 C          18.3610  -31.8611  -40.3897 C.2       9 UNK         0.5513 
     57 N          18.9611  -31.0479  -39.5302 N.am      9 UNK        -0.7519 
     58 O          17.1774  -31.6850  -40.6639 O.2       9 UNK        -0.4960 
     59 C59        18.6019  -33.6292  -42.3279 C.3       10 UNK        -0.0876 
     60 S60        19.1660  -32.7508  -43.8224 S.3       10 UNK        -0.2414 
     61 C61        17.7076  -31.7254  -44.2058 C.3       10 UNK         0.0169 
     62 H62        12.0366  -26.9951  -40.9509 H         1 UNK         0.0903 
     63 H63        11.6130  -25.3939  -41.5636 H         1 UNK         0.0903 
     64 H64        11.5713  -26.7912  -42.6407 H         1 UNK         0.0903 
     65 H65        13.3486  -26.8906  -44.0114 H         1 UNK         0.3096 
     66 H66        15.7608  -25.3787  -43.5094 H         1 UNK         0.1121 
     67 H67        15.0079  -25.4045  -45.7755 H         1 UNK         0.0849 
     68 H68        16.4833  -26.3128  -45.7356 H         1 UNK         0.0849 
     69 H69        16.0799  -27.5166  -48.0666 H         1 UNK         0.0865 
     70 H70        15.3148  -29.0842  -48.0355 H         1 UNK         0.0865 
     71 H71        15.8523  -30.4111  -45.6471 H         1 UNK         0.1346 
     72 H72        20.0857  -30.5309  -45.0037 H         1 UNK         0.1412 
     73 H73        18.4082  -27.6127  -47.6438 H         1 UNK         0.1426 
     74 H74        20.8964  -27.4904  -46.1044 H         1 UNK         0.0716 
     75 H75        20.8121  -28.1351  -47.7083 H         1 UNK         0.0716 
     76 H76        23.8580  -29.3565  -44.7061 H         1 UNK         0.0695 
     77 H77        22.5379  -30.3414  -44.1574 H         1 UNK         0.0695 
     78 H78        22.2628  -27.3162  -44.4062 H         1 UNK         0.0983 
     79 H79        20.7398  -29.3995  -42.8869 H         1 UNK         0.3095 
     80 H80        18.4082  -29.0272  -42.8640 H         1 UNK         0.0454 
     81 H81        17.7243  -28.2728  -40.5893 H         1 UNK         0.0851 
     82 H82        18.7927  -26.8728  -40.6977 H         1 UNK         0.0851 
     83 H83        19.4668  -28.4953  -40.6322 H         1 UNK         0.0851 
     84 H84        17.9066  -26.2442  -43.4536 H         1 UNK         0.2976 
     85 H85        22.1533  -26.1533  -42.3452 H         1 UNK         0.3116 
     86 H86        23.2825  -27.0197  -39.9464 H         1 UNK         0.0646 
     87 H87        23.2821  -24.5891  -39.3555 H         1 UNK         0.0847 
     88 H88        21.7853  -25.0566  -40.1425 H         1 UNK         0.0847 
     89 H89        23.0165  -24.1681  -41.0413 H         1 UNK         0.0847 
     90 H90        24.9681  -25.8152  -42.7788 H         1 UNK         0.3040 
     91 H91        27.4878  -25.2073  -41.5449 H         1 UNK         0.1015 
     92 H92        26.8697  -24.3738  -43.8047 H         1 UNK         0.0786 
     93 H93        26.8175  -26.0235  -44.4286 H         1 UNK         0.0786 
     94 H94        28.3403  -25.3278  -43.8922 H         1 UNK         0.0786 
     95 H95        26.0024  -28.2189  -42.6443 H         1 UNK         0.3172 
     96 H96        28.4566  -29.8118  -42.0741 H         1 UNK         0.0595 
     97 H97        25.7560  -30.5989  -43.3035 H         1 UNK         0.0839 
     98 H98        27.1478  -31.6546  -43.1145 H         1 UNK         0.0839 
     99 H99        27.2377  -30.2820  -44.2059 H         1 UNK         0.0839 
    100 H100       25.5372  -28.7476  -40.6638 H         1 UNK         0.2998 
    101 H101       24.3152  -29.1245  -38.8755 H         1 UNK         0.0822 
    102 H102       26.4424  -29.1750  -37.5446 H         1 UNK         0.0787 
    103 H103       25.2084  -30.2208  -36.8611 H         1 UNK         0.0787 
    104 H104       26.5387  -30.9218  -37.7683 H         1 UNK         0.0787 
    105 H105       23.8036  -30.4990  -41.2109 H         1 UNK         0.3055 
    106 H106       23.0365  -33.2781  -40.4080 H         1 UNK         0.1106 
    107 H107       23.0128  -33.6939  -42.8782 H         1 UNK         0.0828 
    108 H108       23.5734  -32.0532  -43.1620 H         1 UNK         0.0828 
    109 H109       24.5971  -33.1960  -42.3044 H         1 UNK         0.0828 
    110 H110       21.0134  -33.8935  -40.4863 H         1 UNK         0.2931 
    111 H111       18.8792  -33.8584  -40.2488 H         1 UNK         0.0412 
    112 H112       18.4406  -30.2853  -39.1283 H         1 UNK         0.3472 
    113 H113       19.9313  -31.1809  -39.2957 H         1 UNK         0.3472 
    114 H114       17.5119  -33.6844  -42.3240 H         1 UNK         0.0970 
    115 H115       18.9297  -34.6638  -42.4375 H         1 UNK         0.0970 
    116 H116       16.9106  -32.3823  -44.5572 H         1 UNK         0.0612 
    117 H117       17.3482  -31.2589  -43.2885 H         1 UNK         0.0612 
@<TRIPOS>BOND
     1    1    2 1    
     2    1   62 1    
     3    1   63 1    
     4    1   64 1    
     5    2    3 2    
     6    2    4 am   BACKBONE|DICT|INTERRES
     7    4    5 1    
     8    4   65 1    
     9    5    6 1    
    10    5   25 1    
    11    5   66 1    
    12    6    7 1    
    13    6   67 1    
    14    6   68 1    
    15    7    8 1    
    16    8    9 1    
    17    8   69 1    
    18    8   70 1    
    19    9   10 ar   
    20    9   14 ar   
    21   10   11 ar   
    22   10   71 1    
    23   11   12 ar   
    24   11   61 1    
    25   12   13 ar   
    26   12   72 1    
    27   13   14 ar   
    28   13   15 1    
    29   14   73 1    
    30   15   16 1    
    31   15   74 1    
    32   15   75 1    
    33   16   17 1    
    34   17   18 1    
    35   17   76 1    
    36   17   77 1    
    37   18   19 1    
    38   18   27 1    
    39   18   78 1    
    40   19   20 am   BACKBONE|DICT|INTERRES
    41   19   79 1    
    42   20   21 2    
    43   20   22 1    
    44   22   23 1    
    45   22   24 1    
    46   22   80 1    
    47   23   81 1    
    48   23   82 1    
    49   23   83 1    
    50   24   25 am   BACKBONE|DICT|INTERRES
    51   24   84 1    
    52   25   26 2    
    53   27   28 2    
    54   27   29 am   BACKBONE|DICT|INTERRES
    55   29   30 1    
    56   29   85 1    
    57   30   31 1    
    58   30   32 1    
    59   30   86 1    
    60   31   87 1    
    61   31   88 1    
    62   31   89 1    
    63   32   33 2    
    64   32   34 am   BACKBONE|DICT|INTERRES
    65   34   35 1    
    66   34   90 1    
    67   35   36 1    
    68   35   37 1    
    69   35   91 1    
    70   36   92 1    
    71   36   93 1    
    72   36   94 1    
    73   37   38 2    
    74   37   39 am   BACKBONE|DICT|INTERRES
    75   39   40 1    
    76   39   95 1    
    77   40   41 1    
    78   40   42 1    
    79   40   96 1    
    80   41   97 1    
    81   41   98 1    
    82   41   99 1    
    83   42   43 2    
    84   42   44 am   BACKBONE|DICT|INTERRES
    85   44   45 1    
    86   44  100 1    
    87   45   46 1    
    88   45   47 1    
    89   45  101 1    
    90   46  102 1    
    91   46  103 1    
    92   46  104 1    
    93   47   48 2    
    94   47   49 am   BACKBONE|DICT|INTERRES
    95   49   50 1    
    96   49  105 1    
    97   50   51 1    
    98   50   52 1    
    99   50  106 1    
   100   51  107 1    
   101   51  108 1    
   102   51  109 1    
   103   52   53 2    
   104   52   54 am   BACKBONE|DICT|INTERRES
   105   54   55 1    
   106   54  110 1    
   107   55   56 1    
   108   55   59 1    
   109   55  111 1    
   110   56   57 am   BACKBONE|DICT|INTERRES
   111   56   58 2    
   112   57  112 1    
   113   57  113 1    
   114   59   60 1    
   115   59  114 1    
   116   59  115 1    
   117   60   61 1    
   118   61  116 1    
   119   61  117 1    
@<TRIPOS>SUBSTRUCTURE
     1 UNK         1 GROUP             0       ****    0 ROOT    
