@<TRIPOS>MOLECULE
3R8
117   119    1
SMALL
USER_CHARGES


@<TRIPOS>ATOM
      1 CA         22.4694  -24.6341  -47.8627 C.3       0 UNK        -0.2013 
      2 C          21.3776  -25.5145  -48.4664 C.2       0 UNK         0.4866 
      3 O          21.0943  -25.3892  -49.6560 O.2       0 UNK        -0.5176 
      4 N          20.7397  -26.4183  -47.7074 N.am      1 UNK        -0.4884 
      5 CA         20.9296  -26.6769  -46.2727 C.3       1 UNK         0.0853 
      6 C6         20.1582  -27.9381  -45.8108 C.3       10 UNK        -0.0849 
      7 S7         20.6551  -29.4782  -46.6424 S.3       10 UNK        -0.2776 
      8 C8         19.1635  -30.5052  -46.3861 C.3       10 UNK         0.0316 
      9 C9         18.6526  -30.4759  -44.9467 C.ar      10 UNK        -0.0863 
     10 C10        19.4775  -30.8897  -43.8963 C.ar      10 UNK        -0.1009 
     11 C11        19.0218  -30.8499  -42.5756 C.ar      10 UNK        -0.0712 
     12 C12        17.7219  -30.4122  -42.3109 C.ar      10 UNK        -0.0894 
     13 C13        16.8840  -29.9872  -43.3482 C.ar      10 UNK        -0.0745 
     14 C14        17.3570  -30.0250  -44.6650 C.ar      10 UNK        -0.0972 
     15 C15        15.4709  -29.4885  -43.0511 C.3       10 UNK         0.0209 
     16 S16        15.3990  -28.2804  -41.6797 S.3       10 UNK        -0.2568 
     17 C17        15.9574  -26.7258  -42.4613 C.3       10 UNK        -0.0983 
     18 CA         17.4951  -26.6355  -42.6510 C.3       3 UNK         0.0876 
     19 N          17.8703  -25.7755  -43.7744 N.am      3 UNK        -0.4424 
     20 C          17.9201  -24.4361  -43.8206 C.2       2 UNK         0.4918 
     21 O          17.4828  -23.7008  -42.9352 O.2       2 UNK        -0.4875 
     22 CA         18.6111  -23.8233  -45.0642 C.3       2 UNK         0.0481 
     23 CB         19.4498  -22.5795  -44.7039 C.3       2 UNK        -0.1831 
     24 N          19.4181  -24.7930  -45.8294 N.am      2 UNK        -0.4498 
     25 C          20.4645  -25.5098  -45.3815 C.2       1 UNK         0.5027 
     26 O          20.9803  -25.3568  -44.2746 O.2       1 UNK        -0.4969 
     27 C          18.3176  -26.3606  -41.3673 C.2       3 UNK         0.5005 
     28 O          17.7969  -26.4657  -40.2548 O.2       3 UNK        -0.5279 
     29 N          19.6026  -26.0177  -41.5443 N.am      4 UNK        -0.4463 
     30 CA         20.5754  -25.8788  -40.4646 C.3       4 UNK         0.0283 
     31 CB         21.6948  -24.9278  -40.9186 C.3       4 UNK        -0.1875 
     32 C          21.1603  -27.2523  -40.1107 C.2       4 UNK         0.4949 
     33 O          21.4139  -28.0581  -41.0085 O.2       4 UNK        -0.5039 
     34 N          21.4364  -27.4714  -38.8180 N.am      5 UNK        -0.4663 
     35 CA         22.0695  -28.6920  -38.2970 C.3       5 UNK         0.0242 
     36 CB         22.0616  -28.6547  -36.7608 C.3       5 UNK        -0.1982 
     37 C          23.4992  -28.9184  -38.8234 C.2       5 UNK         0.5017 
     38 O          23.9412  -30.0648  -38.9045 O.2       5 UNK        -0.5012 
     39 N          24.1692  -27.8273  -39.2240 N.am      6 UNK        -0.4439 
     40 CA         25.4860  -27.7997  -39.8677 C.3       6 UNK         0.0297 
     41 CB         25.9124  -26.3359  -40.0660 C.3       6 UNK        -0.2006 
     42 C          25.5638  -28.5654  -41.2040 C.2       6 UNK         0.4892 
     43 O          26.6680  -28.9158  -41.6214 O.2       6 UNK        -0.5089 
     44 N          24.4116  -28.8368  -41.8380 N.am      7 UNK        -0.4243 
     45 CA         24.2991  -29.7000  -43.0168 C.3       7 UNK         0.0196 
     46 CB         22.9438  -29.4522  -43.6955 C.3       7 UNK        -0.2007 
     47 C          24.5078  -31.1989  -42.7092 C.2       7 UNK         0.5020 
     48 O          24.7064  -31.9692  -43.6486 O.2       7 UNK        -0.5147 
     49 N          24.4871  -31.5816  -41.4203 N.am      8 UNK        -0.4734 
     50 CA         24.8113  -32.9081  -40.8773 C.3       8 UNK         0.0238 
     51 CB         26.3096  -33.2222  -41.0793 C.3       8 UNK        -0.1912 
     52 C          23.8868  -34.0290  -41.3899 C.2       8 UNK         0.5038 
     53 O          24.3633  -35.0946  -41.7865 O.2       8 UNK        -0.5046 
     54 N          22.5752  -33.7644  -41.3629 N.am      9 UNK        -0.4200 
     55 CA         21.5152  -34.7149  -41.7371 C.3       9 UNK         0.0839 
     56 C          21.2711  -35.8737  -40.7243 C.2       9 UNK         0.5513 
     57 N          21.8338  -35.8413  -39.5218 N.am      9 UNK        -0.7519 
     58 O          20.5666  -36.8279  -41.0441 O.2       9 UNK        -0.4960 
     59 C59        20.2010  -33.9836  -42.1169 C.3       10 UNK        -0.0876 
     60 S60        19.5439  -32.9090  -40.7904 S.3       10 UNK        -0.2414 
     61 C61        19.9354  -31.2505  -41.4265 C.3       10 UNK         0.0169 
     62 H62        22.0324  -23.8293  -47.2723 H         1 UNK         0.0903 
     63 H63        23.1501  -25.2054  -47.2332 H         1 UNK         0.0903 
     64 H64        23.0660  -24.1781  -48.6527 H         1 UNK         0.0903 
     65 H65        20.0593  -27.0152  -48.1570 H         1 UNK         0.3096 
     66 H66        21.9921  -26.8399  -46.0817 H         1 UNK         0.1121 
     67 H67        19.0858  -27.8036  -45.9666 H         1 UNK         0.0849 
     68 H68        20.2948  -28.1006  -44.7384 H         1 UNK         0.0849 
     69 H69        18.3882  -30.1698  -47.0767 H         1 UNK         0.0865 
     70 H70        19.3914  -31.5355  -46.6624 H         1 UNK         0.0865 
     71 H71        20.4823  -31.2261  -44.1111 H         1 UNK         0.1346 
     72 H72        17.3680  -30.3878  -41.2892 H         1 UNK         0.1412 
     73 H73        16.7147  -29.7009  -45.4727 H         1 UNK         0.1426 
     74 H74        15.0141  -29.0487  -43.9391 H         1 UNK         0.0716 
     75 H75        14.8559  -30.3489  -42.7847 H         1 UNK         0.0716 
     76 H76        15.5949  -25.8815  -41.8725 H         1 UNK         0.0695 
     77 H77        15.4539  -26.6488  -43.4262 H         1 UNK         0.0695 
     78 H78        17.8467  -27.6146  -42.9664 H         1 UNK         0.0983 
     79 H79        18.2195  -26.2622  -44.5842 H         1 UNK         0.3095 
     80 H80        17.8090  -23.5019  -45.7300 H         1 UNK         0.0454 
     81 H81        19.9332  -22.1575  -45.5847 H         1 UNK         0.0851 
     82 H82        20.2254  -22.8094  -43.9727 H         1 UNK         0.0851 
     83 H83        18.8239  -21.7963  -44.2743 H         1 UNK         0.0851 
     84 H84        19.0761  -25.0053  -46.7577 H         1 UNK         0.2976 
     85 H85        19.9751  -25.9539  -42.4850 H         1 UNK         0.3116 
     86 H86        20.0878  -25.4504  -39.5862 H         1 UNK         0.0646 
     87 H87        21.2954  -23.9559  -41.2092 H         1 UNK         0.0847 
     88 H88        22.4139  -24.7557  -40.1170 H         1 UNK         0.0847 
     89 H89        22.2455  -25.3286  -41.7712 H         1 UNK         0.0847 
     90 H90        21.2008  -26.7586  -38.1412 H         1 UNK         0.3040 
     91 H91        21.4692  -29.5441  -38.6243 H         1 UNK         0.1015 
     92 H92        22.6298  -27.8082  -36.3731 H         1 UNK         0.0786 
     93 H93        22.5045  -29.5617  -36.3463 H         1 UNK         0.0786 
     94 H94        21.0460  -28.5862  -36.3703 H         1 UNK         0.0786 
     95 H95        23.7075  -26.9375  -39.1081 H         1 UNK         0.3172 
     96 H96        26.1925  -28.2742  -39.1838 H         1 UNK         0.0595 
     97 H97        25.2263  -25.8006  -40.7239 H         1 UNK         0.0839 
     98 H98        26.9054  -26.2755  -40.5141 H         1 UNK         0.0839 
     99 H99        25.9568  -25.8010  -39.1171 H         1 UNK         0.0839 
    100 H100       23.5408  -28.5063  -41.4379 H         1 UNK         0.2998 
    101 H101       25.0817  -29.4122  -43.7221 H         1 UNK         0.0822 
    102 H102       22.8272  -30.0816  -44.5786 H         1 UNK         0.0787 
    103 H103       22.1113  -29.6661  -43.0276 H         1 UNK         0.0787 
    104 H104       22.8481  -28.4164  -44.0210 H         1 UNK         0.0787 
    105 H105       24.2969  -30.8733  -40.7173 H         1 UNK         0.3055 
    106 H106       24.6374  -32.8456  -39.8015 H         1 UNK         0.1106 
    107 H107       26.9386  -32.4294  -40.6742 H         1 UNK         0.0828 
    108 H108       26.5879  -34.1466  -40.5716 H         1 UNK         0.0828 
    109 H109       26.5602  -33.3429  -42.1338 H         1 UNK         0.0828 
    110 H110       22.2649  -32.8736  -41.0062 H         1 UNK         0.2931 
    111 H111       21.8567  -35.2109  -42.6479 H         1 UNK         0.0412 
    112 H112       22.4070  -35.0613  -39.2449 H         1 UNK         0.3472 
    113 H113       21.6707  -36.6013  -38.8800 H         1 UNK         0.3472 
    114 H114       20.3691  -33.3942  -43.0176 H         1 UNK         0.0970 
    115 H115       19.4261  -34.7016  -42.3920 H         1 UNK         0.0970 
    116 H116       20.9823  -31.2146  -41.7279 H         1 UNK         0.0612 
    117 H117       19.8300  -30.5278  -40.6158 H         1 UNK         0.0612 
@<TRIPOS>BOND
     1    1    2 1    
     2    1   62 1    
     3    1   63 1    
     4    1   64 1    
     5    2    3 2    
     6    2    4 am   BACKBONE|DICT|INTERRES
     7    4    5 1    
     8    4   65 1    
     9    5    6 1    
    10    5   25 1    
    11    5   66 1    
    12    6    7 1    
    13    6   67 1    
    14    6   68 1    
    15    7    8 1    
    16    8    9 1    
    17    8   69 1    
    18    8   70 1    
    19    9   10 ar   
    20    9   14 ar   
    21   10   11 ar   
    22   10   71 1    
    23   11   12 ar   
    24   11   61 1    
    25   12   13 ar   
    26   12   72 1    
    27   13   14 ar   
    28   13   15 1    
    29   14   73 1    
    30   15   16 1    
    31   15   74 1    
    32   15   75 1    
    33   16   17 1    
    34   17   18 1    
    35   17   76 1    
    36   17   77 1    
    37   18   19 1    
    38   18   27 1    
    39   18   78 1    
    40   19   20 am   BACKBONE|DICT|INTERRES
    41   19   79 1    
    42   20   21 2    
    43   20   22 1    
    44   22   23 1    
    45   22   24 1    
    46   22   80 1    
    47   23   81 1    
    48   23   82 1    
    49   23   83 1    
    50   24   25 am   BACKBONE|DICT|INTERRES
    51   24   84 1    
    52   25   26 2    
    53   27   28 2    
    54   27   29 am   BACKBONE|DICT|INTERRES
    55   29   30 1    
    56   29   85 1    
    57   30   31 1    
    58   30   32 1    
    59   30   86 1    
    60   31   87 1    
    61   31   88 1    
    62   31   89 1    
    63   32   33 2    
    64   32   34 am   BACKBONE|DICT|INTERRES
    65   34   35 1    
    66   34   90 1    
    67   35   36 1    
    68   35   37 1    
    69   35   91 1    
    70   36   92 1    
    71   36   93 1    
    72   36   94 1    
    73   37   38 2    
    74   37   39 am   BACKBONE|DICT|INTERRES
    75   39   40 1    
    76   39   95 1    
    77   40   41 1    
    78   40   42 1    
    79   40   96 1    
    80   41   97 1    
    81   41   98 1    
    82   41   99 1    
    83   42   43 2    
    84   42   44 am   BACKBONE|DICT|INTERRES
    85   44   45 1    
    86   44  100 1    
    87   45   46 1    
    88   45   47 1    
    89   45  101 1    
    90   46  102 1    
    91   46  103 1    
    92   46  104 1    
    93   47   48 2    
    94   47   49 am   BACKBONE|DICT|INTERRES
    95   49   50 1    
    96   49  105 1    
    97   50   51 1    
    98   50   52 1    
    99   50  106 1    
   100   51  107 1    
   101   51  108 1    
   102   51  109 1    
   103   52   53 2    
   104   52   54 am   BACKBONE|DICT|INTERRES
   105   54   55 1    
   106   54  110 1    
   107   55   56 1    
   108   55   59 1    
   109   55  111 1    
   110   56   57 am   BACKBONE|DICT|INTERRES
   111   56   58 2    
   112   57  112 1    
   113   57  113 1    
   114   59   60 1    
   115   59  114 1    
   116   59  115 1    
   117   60   61 1    
   118   61  116 1    
   119   61  117 1    
@<TRIPOS>SUBSTRUCTURE
     1 UNK         1 GROUP             0       ****    0 ROOT    
