@<TRIPOS>MOLECULE
3R8
117   119    1
SMALL
USER_CHARGES


@<TRIPOS>ATOM
      1 CA         21.5040  -31.8814  -46.7522 C.3       0 UNK        -0.2013 
      2 C          22.4466  -31.4657  -45.6249 C.2       0 UNK         0.4866 
      3 O          23.5172  -32.0550  -45.4977 O.2       0 UNK        -0.5176 
      4 N          22.1096  -30.4841  -44.7795 N.am      1 UNK        -0.4884 
      5 CA         20.9353  -29.6158  -44.7993 C.3       1 UNK         0.0853 
      6 C6         20.9116  -28.6855  -46.0426 C.3       10 UNK        -0.0849 
      7 S7         19.4202  -27.6502  -46.1877 S.3       10 UNK        -0.2776 
      8 C8         18.1377  -28.8799  -46.5936 C.3       10 UNK         0.0316 
      9 C9         17.2914  -29.1952  -45.3700 C.ar      10 UNK        -0.0863 
     10 C10        17.2969  -30.4662  -44.7850 C.ar      10 UNK        -0.1009 
     11 C11        16.5130  -30.7259  -43.6558 C.ar      10 UNK        -0.0712 
     12 C12        15.7309  -29.7027  -43.1075 C.ar      10 UNK        -0.0894 
     13 C13        15.7018  -28.4363  -43.6990 C.ar      10 UNK        -0.0745 
     14 C14        16.4765  -28.1956  -44.8344 C.ar      10 UNK        -0.0972 
     15 C15        14.7977  -27.3427  -43.1472 C.3       10 UNK         0.0209 
     16 S16        15.5851  -26.3891  -41.8115 S.3       10 UNK        -0.2568 
     17 C17        16.8068  -25.3676  -42.7096 C.3       10 UNK        -0.0983 
     18 CA         18.2091  -25.4446  -42.0616 C.3       3 UNK         0.0876 
     19 N          18.7103  -26.8209  -41.9688 N.am      3 UNK        -0.4424 
     20 C          19.6729  -27.2110  -41.1236 C.2       2 UNK         0.4918 
     21 O          20.2729  -26.4447  -40.3706 O.2       2 UNK        -0.4875 
     22 CA         20.0614  -28.6961  -41.1548 C.3       2 UNK         0.0481 
     23 CB         19.0992  -29.5074  -40.2750 C.3       2 UNK        -0.1831 
     24 N          20.1075  -29.2614  -42.5083 N.am      2 UNK        -0.4498 
     25 C          20.9450  -28.8409  -43.4691 C.2       1 UNK         0.5027 
     26 O          21.7272  -27.8979  -43.3226 O.2       1 UNK        -0.4969 
     27 C          19.2104  -24.4861  -42.7459 C.2       3 UNK         0.5005 
     28 O          19.0872  -23.2728  -42.5734 O.2       3 UNK        -0.5279 
     29 N          20.2056  -25.0310  -43.4637 N.am      4 UNK        -0.4463 
     30 CA         21.3533  -24.2929  -44.0020 C.3       4 UNK         0.0283 
     31 CB         21.8060  -24.9490  -45.3162 C.3       4 UNK        -0.1875 
     32 C          22.5261  -24.2120  -43.0027 C.2       4 UNK         0.4949 
     33 O          23.5750  -23.6771  -43.3625 O.2       4 UNK        -0.5039 
     34 N          22.3408  -24.7415  -41.7827 N.am      5 UNK        -0.4663 
     35 CA         23.3020  -24.8063  -40.6766 C.3       5 UNK         0.0242 
     36 CB         23.7210  -23.3952  -40.2086 C.3       5 UNK        -0.1982 
     37 C          24.4978  -25.7380  -40.9523 C.2       5 UNK         0.5017 
     38 O          25.5935  -25.4899  -40.4439 O.2       5 UNK        -0.5012 
     39 N          24.2661  -26.8125  -41.7207 N.am      6 UNK        -0.4439 
     40 CA         25.2065  -27.9249  -41.8790 C.3       6 UNK         0.0297 
     41 CB         24.8743  -28.6811  -43.1765 C.3       6 UNK        -0.2006 
     42 C          25.1492  -28.8697  -40.6618 C.2       6 UNK         0.4892 
     43 O          24.3351  -28.6731  -39.7535 O.2       6 UNK        -0.5089 
     44 N          26.0012  -29.9038  -40.6735 N.am      7 UNK        -0.4243 
     45 CA         26.0474  -30.9787  -39.6760 C.3       7 UNK         0.0196 
     46 CB         27.3956  -31.7136  -39.7983 C.3       7 UNK        -0.2007 
     47 C          24.8392  -31.9302  -39.8086 C.2       7 UNK         0.5020 
     48 O          24.9972  -33.0779  -40.2294 O.2       7 UNK        -0.5147 
     49 N          23.6538  -31.4081  -39.4666 N.am      8 UNK        -0.4734 
     50 CA         22.3202  -31.9960  -39.6369 C.3       8 UNK         0.0238 
     51 CB         22.1798  -33.3073  -38.8301 C.3       8 UNK        -0.1912 
     52 C          21.9374  -32.1435  -41.1244 C.2       8 UNK         0.5038 
     53 O          22.5538  -31.5111  -41.9844 O.2       8 UNK        -0.5046 
     54 N          20.8967  -32.9405  -41.3958 N.am      9 UNK        -0.4200 
     55 CA         20.3752  -33.2256  -42.7438 C.3       9 UNK         0.0839 
     56 C          21.2085  -34.2681  -43.5485 C.2       9 UNK         0.5513 
     57 N          22.2778  -34.8381  -43.0066 N.am      9 UNK        -0.7519 
     58 O          20.8723  -34.5679  -44.6906 O.2       9 UNK        -0.4960 
     59 C59        18.8753  -33.6240  -42.7089 C.3       10 UNK        -0.0876 
     60 S60        17.8222  -32.3909  -41.8665 S.3       10 UNK        -0.2414 
     61 C61        16.4685  -32.1217  -43.0524 C.3       10 UNK         0.0169 
     62 H62        21.7707  -31.3724  -47.6771 H         1 UNK         0.0903 
     63 H63        21.5922  -32.9526  -46.9287 H         1 UNK         0.0903 
     64 H64        20.4583  -31.6819  -46.5291 H         1 UNK         0.0903 
     65 H65        22.7126  -30.3289  -43.9799 H         1 UNK         0.3096 
     66 H66        20.0502  -30.2489  -44.8105 H         1 UNK         0.1121 
     67 H67        21.7863  -28.0340  -46.0423 H         1 UNK         0.0849 
     68 H68        20.9900  -29.2566  -46.9658 H         1 UNK         0.0849 
     69 H69        17.4939  -28.4715  -47.3740 H         1 UNK         0.0865 
     70 H70        18.5851  -29.7824  -47.0124 H         1 UNK         0.0865 
     71 H71        17.8948  -31.2593  -45.2127 H         1 UNK         0.1346 
     72 H72        15.1219  -29.8993  -42.2356 H         1 UNK         0.1412 
     73 H73        16.4484  -27.2259  -45.3120 H         1 UNK         0.1426 
     74 H74        13.8816  -27.7909  -42.7597 H         1 UNK         0.0716 
     75 H75        14.4859  -26.6640  -43.9427 H         1 UNK         0.0716 
     76 H76        16.4411  -24.3390  -42.6996 H         1 UNK         0.0695 
     77 H77        16.8539  -25.6565  -43.7583 H         1 UNK         0.0695 
     78 H78        18.1036  -25.0742  -41.0388 H         1 UNK         0.0983 
     79 H79        18.2520  -27.5092  -42.5491 H         1 UNK         0.3095 
     80 H80        21.0638  -28.7838  -40.7295 H         1 UNK         0.0454 
     81 H81        19.0514  -29.0964  -39.2656 H         1 UNK         0.0851 
     82 H82        19.4204  -30.5433  -40.1814 H         1 UNK         0.0851 
     83 H83        18.0842  -29.5044  -40.6750 H         1 UNK         0.0851 
     84 H84        19.4905  -30.0404  -42.6897 H         1 UNK         0.2976 
     85 H85        20.2494  -26.0386  -43.5460 H         1 UNK         0.3116 
     86 H86        21.0505  -23.2686  -44.2285 H         1 UNK         0.0646 
     87 H87        20.9837  -25.0316  -46.0265 H         1 UNK         0.0847 
     88 H88        22.2116  -25.9455  -45.1454 H         1 UNK         0.0847 
     89 H89        22.5883  -24.3612  -45.7979 H         1 UNK         0.0847 
     90 H90        21.4480  -25.1792  -41.5864 H         1 UNK         0.3040 
     91 H91        22.7645  -25.2706  -39.8480 H         1 UNK         0.1015 
     92 H92        24.2953  -23.4458  -39.2828 H         1 UNK         0.0786 
     93 H93        22.8517  -22.7670  -40.0139 H         1 UNK         0.0786 
     94 H94        24.3437  -22.8892  -40.9467 H         1 UNK         0.0786 
     95 H95        23.3334  -26.9574  -42.0901 H         1 UNK         0.3172 
     96 H96        26.2192  -27.5246  -41.9601 H         1 UNK         0.0595 
     97 H97        25.6807  -29.3585  -43.4585 H         1 UNK         0.0839 
     98 H98        24.7179  -28.0003  -44.0138 H         1 UNK         0.0839 
     99 H99        23.9755  -29.2844  -43.0599 H         1 UNK         0.0839 
    100 H100       26.6172  -30.0088  -41.4667 H         1 UNK         0.2998 
    101 H101       26.0038  -30.5312  -38.6803 H         1 UNK         0.0822 
    102 H102       27.4718  -32.5128  -39.0598 H         1 UNK         0.0787 
    103 H103       28.2334  -31.0370  -39.6282 H         1 UNK         0.0787 
    104 H104       27.5233  -32.1659  -40.7828 H         1 UNK         0.0787 
    105 H105       23.6633  -30.4138  -39.2513 H         1 UNK         0.3055 
    106 H106       21.6230  -31.2699  -39.2166 H         1 UNK         0.1106 
    107 H107       22.5492  -33.1841  -37.8119 H         1 UNK         0.0828 
    108 H108       21.1381  -33.6187  -38.7494 H         1 UNK         0.0828 
    109 H109       22.7336  -34.1290  -39.2854 H         1 UNK         0.0828 
    110 H110       20.4359  -33.4205  -40.6374 H         1 UNK         0.2931 
    111 H111       20.4380  -32.3003  -43.3171 H         1 UNK         0.0412 
    112 H112       22.5852  -34.5793  -42.0830 H         1 UNK         0.3472 
    113 H113       22.8054  -35.5063  -43.5459 H         1 UNK         0.3472 
    114 H114       18.7486  -34.5806  -42.1988 H         1 UNK         0.0970 
    115 H115       18.5098  -33.7782  -43.7254 H         1 UNK         0.0970 
    116 H116       15.5234  -32.2668  -42.5268 H         1 UNK         0.0612 
    117 H117       16.4794  -32.8714  -43.8440 H         1 UNK         0.0612 
@<TRIPOS>BOND
     1    1    2 1    
     2    1   62 1    
     3    1   63 1    
     4    1   64 1    
     5    2    3 2    
     6    2    4 am   BACKBONE|DICT|INTERRES
     7    4    5 1    
     8    4   65 1    
     9    5    6 1    
    10    5   25 1    
    11    5   66 1    
    12    6    7 1    
    13    6   67 1    
    14    6   68 1    
    15    7    8 1    
    16    8    9 1    
    17    8   69 1    
    18    8   70 1    
    19    9   10 ar   
    20    9   14 ar   
    21   10   11 ar   
    22   10   71 1    
    23   11   12 ar   
    24   11   61 1    
    25   12   13 ar   
    26   12   72 1    
    27   13   14 ar   
    28   13   15 1    
    29   14   73 1    
    30   15   16 1    
    31   15   74 1    
    32   15   75 1    
    33   16   17 1    
    34   17   18 1    
    35   17   76 1    
    36   17   77 1    
    37   18   19 1    
    38   18   27 1    
    39   18   78 1    
    40   19   20 am   BACKBONE|DICT|INTERRES
    41   19   79 1    
    42   20   21 2    
    43   20   22 1    
    44   22   23 1    
    45   22   24 1    
    46   22   80 1    
    47   23   81 1    
    48   23   82 1    
    49   23   83 1    
    50   24   25 am   BACKBONE|DICT|INTERRES
    51   24   84 1    
    52   25   26 2    
    53   27   28 2    
    54   27   29 am   BACKBONE|DICT|INTERRES
    55   29   30 1    
    56   29   85 1    
    57   30   31 1    
    58   30   32 1    
    59   30   86 1    
    60   31   87 1    
    61   31   88 1    
    62   31   89 1    
    63   32   33 2    
    64   32   34 am   BACKBONE|DICT|INTERRES
    65   34   35 1    
    66   34   90 1    
    67   35   36 1    
    68   35   37 1    
    69   35   91 1    
    70   36   92 1    
    71   36   93 1    
    72   36   94 1    
    73   37   38 2    
    74   37   39 am   BACKBONE|DICT|INTERRES
    75   39   40 1    
    76   39   95 1    
    77   40   41 1    
    78   40   42 1    
    79   40   96 1    
    80   41   97 1    
    81   41   98 1    
    82   41   99 1    
    83   42   43 2    
    84   42   44 am   BACKBONE|DICT|INTERRES
    85   44   45 1    
    86   44  100 1    
    87   45   46 1    
    88   45   47 1    
    89   45  101 1    
    90   46  102 1    
    91   46  103 1    
    92   46  104 1    
    93   47   48 2    
    94   47   49 am   BACKBONE|DICT|INTERRES
    95   49   50 1    
    96   49  105 1    
    97   50   51 1    
    98   50   52 1    
    99   50  106 1    
   100   51  107 1    
   101   51  108 1    
   102   51  109 1    
   103   52   53 2    
   104   52   54 am   BACKBONE|DICT|INTERRES
   105   54   55 1    
   106   54  110 1    
   107   55   56 1    
   108   55   59 1    
   109   55  111 1    
   110   56   57 am   BACKBONE|DICT|INTERRES
   111   56   58 2    
   112   57  112 1    
   113   57  113 1    
   114   59   60 1    
   115   59  114 1    
   116   59  115 1    
   117   60   61 1    
   118   61  116 1    
   119   61  117 1    
@<TRIPOS>SUBSTRUCTURE
     1 UNK         1 GROUP             0       ****    0 ROOT    
