@<TRIPOS>MOLECULE
3R8
117   119    1
SMALL
USER_CHARGES


@<TRIPOS>ATOM
      1 CA         22.9221  -27.9528  -45.4014 C.3       0 UNK        -0.2013 
      2 C          21.4369  -27.6446  -45.3115 C.2       0 UNK         0.4866 
      3 O          20.9510  -27.2540  -44.2491 O.2       0 UNK        -0.5176 
      4 N          20.7098  -27.7908  -46.4273 N.am      1 UNK        -0.4884 
      5 CA         19.2440  -27.6707  -46.5072 C.3       1 UNK         0.0853 
      6 C6         18.6286  -28.5174  -47.6499 C.3       10 UNK        -0.0849 
      7 S7         19.1093  -30.2769  -47.5508 S.3       10 UNK        -0.2776 
      8 C8         17.8037  -30.9726  -46.4804 C.3       10 UNK         0.0316 
      9 C9         17.8818  -30.4567  -45.0473 C.ar      10 UNK        -0.0863 
     10 C10        19.0101  -30.7213  -44.2640 C.ar      10 UNK        -0.1009 
     11 C11        19.0892  -30.2542  -42.9484 C.ar      10 UNK        -0.0712 
     12 C12        18.0258  -29.5231  -42.4135 C.ar      10 UNK        -0.0894 
     13 C13        16.9091  -29.2179  -43.1954 C.ar      10 UNK        -0.0745 
     14 C14        16.8360  -29.6991  -44.5076 C.ar      10 UNK        -0.0972 
     15 C15        15.7838  -28.3635  -42.6283 C.3       10 UNK         0.0209 
     16 S16        15.9535  -26.6158  -43.1211 S.3       10 UNK        -0.2568 
     17 C17        17.0294  -25.9085  -41.8204 C.3       10 UNK        -0.0983 
     18 CA         18.5409  -25.9537  -42.1681 C.3       3 UNK         0.0876 
     19 N          18.9242  -25.3961  -43.4623 N.am      3 UNK        -0.4424 
     20 C          18.5944  -24.2317  -44.0420 C.2       2 UNK         0.4918 
     21 O          17.8735  -23.3715  -43.5362 O.2       2 UNK        -0.4875 
     22 CA         19.1560  -24.0029  -45.4659 C.3       2 UNK         0.0481 
     23 CB         20.3600  -23.0487  -45.4215 C.3       2 UNK        -0.1831 
     24 N          19.5638  -25.2611  -46.1023 N.am      2 UNK        -0.4498 
     25 C          18.7072  -26.2219  -46.4788 C.2       1 UNK         0.5027 
     26 O          17.5161  -26.0088  -46.7084 O.2       1 UNK        -0.4969 
     27 C          19.4404  -25.3949  -41.0530 C.2       3 UNK         0.5005 
     28 O          19.6621  -24.1850  -40.9777 O.2       3 UNK        -0.5279 
     29 N          19.9845  -26.3111  -40.2362 N.am      4 UNK        -0.4463 
     30 CA         20.9918  -26.1023  -39.1834 C.3       4 UNK         0.0283 
     31 CB         20.4855  -25.1315  -38.0956 C.3       4 UNK        -0.1875 
     32 C          22.3929  -25.7113  -39.7033 C.2       4 UNK         0.4949 
     33 O          23.2861  -25.4707  -38.8907 O.2       4 UNK        -0.5039 
     34 N          22.5856  -25.6880  -41.0305 N.am      5 UNK        -0.4663 
     35 CA         23.8705  -25.4253  -41.6873 C.3       5 UNK         0.0242 
     36 CB         23.6080  -24.8831  -43.1014 C.3       5 UNK        -0.1982 
     37 C          24.7864  -26.6635  -41.7279 C.2       5 UNK         0.5017 
     38 O          25.9879  -26.5155  -41.9532 O.2       5 UNK        -0.5012 
     39 N          24.2138  -27.8493  -41.4939 N.am      6 UNK        -0.4439 
     40 CA         24.9030  -29.1171  -41.2886 C.3       6 UNK         0.0297 
     41 CB         24.9113  -29.9295  -42.5949 C.3       6 UNK        -0.2006 
     42 C          24.1501  -29.8652  -40.1846 C.2       6 UNK         0.4892 
     43 O          22.9312  -29.7097  -40.0773 O.2       6 UNK        -0.5089 
     44 N          24.8812  -30.6580  -39.3932 N.am      7 UNK        -0.4243 
     45 CA         24.3204  -31.4608  -38.3027 C.3       7 UNK         0.0196 
     46 CB         25.3774  -31.6239  -37.1976 C.3       7 UNK        -0.2007 
     47 C          23.8275  -32.8380  -38.7756 C.2       7 UNK         0.5020 
     48 O          22.8742  -33.3646  -38.2020 O.2       7 UNK        -0.5147 
     49 N          24.4964  -33.4109  -39.7869 N.am      8 UNK        -0.4734 
     50 CA         24.1962  -34.7446  -40.3183 C.3       8 UNK         0.0238 
     51 CB         25.4254  -35.2837  -41.0687 C.3       8 UNK        -0.1912 
     52 C          22.9587  -34.7676  -41.2297 C.2       8 UNK         0.5038 
     53 O          22.2255  -35.7575  -41.2195 O.2       8 UNK        -0.5046 
     54 N          22.7608  -33.6845  -41.9940 N.am      9 UNK        -0.4200 
     55 CA         21.6859  -33.5024  -42.9840 C.3       9 UNK         0.0839 
     56 C          21.7302  -34.5509  -44.1398 C.2       9 UNK         0.5513 
     57 N          20.6241  -34.8090  -44.8262 N.am      9 UNK        -0.7519 
     58 O          22.7834  -35.0957  -44.4657 O.2       9 UNK        -0.4960 
     59 C59        20.2839  -33.3337  -42.3227 C.3       10 UNK        -0.0876 
     60 S60        20.2178  -31.9925  -41.0843 S.3       10 UNK        -0.2414 
     61 C61        20.3393  -30.4959  -42.1160 C.3       10 UNK         0.0169 
     62 H62        23.3006  -28.2624  -44.4285 H         1 UNK         0.0903 
     63 H63        23.1183  -28.7562  -46.1111 H         1 UNK         0.0903 
     64 H64        23.4753  -27.0687  -45.7161 H         1 UNK         0.0903 
     65 H65        21.1630  -28.0991  -47.2765 H         1 UNK         0.3096 
     66 H66        18.8599  -28.0815  -45.5739 H         1 UNK         0.1121 
     67 H67        17.5384  -28.4580  -47.6398 H         1 UNK         0.0849 
     68 H68        18.9442  -28.1284  -48.6194 H         1 UNK         0.0849 
     69 H69        16.8272  -30.7645  -46.9205 H         1 UNK         0.0865 
     70 H70        17.9043  -32.0588  -46.4672 H         1 UNK         0.0865 
     71 H71        19.8338  -31.2794  -44.6875 H         1 UNK         0.1346 
     72 H72        18.0806  -29.1675  -41.3941 H         1 UNK         0.1412 
     73 H73        15.9689  -29.4679  -45.1115 H         1 UNK         0.1426 
     74 H74        15.7378  -28.4477  -41.5416 H         1 UNK         0.0716 
     75 H75        14.8278  -28.7367  -42.9987 H         1 UNK         0.0716 
     76 H76        16.8401  -26.4341  -40.8831 H         1 UNK         0.0695 
     77 H77        16.7128  -24.8784  -41.6496 H         1 UNK         0.0695 
     78 H78        18.8057  -27.0033  -42.2763 H         1 UNK         0.0983 
     79 H79        19.5832  -25.9887  -43.9595 H         1 UNK         0.3095 
     80 H80        18.3708  -23.5429  -46.0694 H         1 UNK         0.0454 
     81 H81        21.1786  -23.4572  -44.8278 H         1 UNK         0.0851 
     82 H82        20.0817  -22.0925  -44.9764 H         1 UNK         0.0851 
     83 H83        20.7398  -22.8408  -46.4218 H         1 UNK         0.0851 
     84 H84        20.5265  -25.5383  -45.9719 H         1 UNK         0.2976 
     85 H85        19.7345  -27.2795  -40.3817 H         1 UNK         0.3116 
     86 H86        21.1212  -27.0768  -38.7096 H         1 UNK         0.0646 
     87 H87        20.4136  -24.1077  -38.4630 H         1 UNK         0.0847 
     88 H88        21.1620  -25.1174  -37.2402 H         1 UNK         0.0847 
     89 H89        19.5040  -25.4259  -37.7245 H         1 UNK         0.0847 
     90 H90        21.7999  -25.8849  -41.6330 H         1 UNK         0.3040 
     91 H91        24.4020  -24.6544  -41.1244 H         1 UNK         0.1015 
     92 H92        23.0373  -25.5873  -43.7042 H         1 UNK         0.0786 
     93 H93        24.5434  -24.6847  -43.6264 H         1 UNK         0.0786 
     94 H94        23.0522  -23.9460  -43.0665 H         1 UNK         0.0786 
     95 H95        23.2304  -27.8743  -41.2556 H         1 UNK         0.3172 
     96 H96        25.9286  -28.9359  -40.9594 H         1 UNK         0.0595 
     97 H97        25.4441  -30.8723  -42.4664 H         1 UNK         0.0839 
     98 H98        25.4103  -29.3840  -43.3960 H         1 UNK         0.0839 
     99 H99        23.9006  -30.1675  -42.9290 H         1 UNK         0.0839 
    100 H100       25.8799  -30.7113  -39.5366 H         1 UNK         0.2998 
    101 H101       23.4644  -30.9356  -37.8718 H         1 UNK         0.0822 
    102 H102       24.9801  -32.2002  -36.3607 H         1 UNK         0.0787 
    103 H103       26.2661  -32.1436  -37.5580 H         1 UNK         0.0787 
    104 H104       25.6901  -30.6569  -36.8030 H         1 UNK         0.0787 
    105 H105       25.2794  -32.9190  -40.1909 H         1 UNK         0.3055 
    106 H106       23.9933  -35.4139  -39.4785 H         1 UNK         0.1106 
    107 H107       25.2356  -36.2858  -41.4563 H         1 UNK         0.0828 
    108 H108       25.6927  -34.6533  -41.9177 H         1 UNK         0.0828 
    109 H109       26.2933  -35.3518  -40.4127 H         1 UNK         0.0828 
    110 H110       23.4259  -32.9308  -41.9244 H         1 UNK         0.2931 
    111 H111       21.9274  -32.5656  -43.4844 H         1 UNK         0.0412 
    112 H112       19.7468  -34.3696  -44.6003 H         1 UNK         0.3472 
    113 H113       20.6686  -35.4708  -45.5857 H         1 UNK         0.3472 
    114 H114       19.5103  -33.1408  -43.0647 H         1 UNK         0.0970 
    115 H115       19.9907  -34.2612  -41.8283 H         1 UNK         0.0970 
    116 H116       21.2214  -30.5446  -42.7542 H         1 UNK         0.0612 
    117 H117       20.5056  -29.6418  -41.4582 H         1 UNK         0.0612 
@<TRIPOS>BOND
     1    1    2 1    
     2    1   62 1    
     3    1   63 1    
     4    1   64 1    
     5    2    3 2    
     6    2    4 am   BACKBONE|DICT|INTERRES
     7    4    5 1    
     8    4   65 1    
     9    5    6 1    
    10    5   25 1    
    11    5   66 1    
    12    6    7 1    
    13    6   67 1    
    14    6   68 1    
    15    7    8 1    
    16    8    9 1    
    17    8   69 1    
    18    8   70 1    
    19    9   10 ar   
    20    9   14 ar   
    21   10   11 ar   
    22   10   71 1    
    23   11   12 ar   
    24   11   61 1    
    25   12   13 ar   
    26   12   72 1    
    27   13   14 ar   
    28   13   15 1    
    29   14   73 1    
    30   15   16 1    
    31   15   74 1    
    32   15   75 1    
    33   16   17 1    
    34   17   18 1    
    35   17   76 1    
    36   17   77 1    
    37   18   19 1    
    38   18   27 1    
    39   18   78 1    
    40   19   20 am   BACKBONE|DICT|INTERRES
    41   19   79 1    
    42   20   21 2    
    43   20   22 1    
    44   22   23 1    
    45   22   24 1    
    46   22   80 1    
    47   23   81 1    
    48   23   82 1    
    49   23   83 1    
    50   24   25 am   BACKBONE|DICT|INTERRES
    51   24   84 1    
    52   25   26 2    
    53   27   28 2    
    54   27   29 am   BACKBONE|DICT|INTERRES
    55   29   30 1    
    56   29   85 1    
    57   30   31 1    
    58   30   32 1    
    59   30   86 1    
    60   31   87 1    
    61   31   88 1    
    62   31   89 1    
    63   32   33 2    
    64   32   34 am   BACKBONE|DICT|INTERRES
    65   34   35 1    
    66   34   90 1    
    67   35   36 1    
    68   35   37 1    
    69   35   91 1    
    70   36   92 1    
    71   36   93 1    
    72   36   94 1    
    73   37   38 2    
    74   37   39 am   BACKBONE|DICT|INTERRES
    75   39   40 1    
    76   39   95 1    
    77   40   41 1    
    78   40   42 1    
    79   40   96 1    
    80   41   97 1    
    81   41   98 1    
    82   41   99 1    
    83   42   43 2    
    84   42   44 am   BACKBONE|DICT|INTERRES
    85   44   45 1    
    86   44  100 1    
    87   45   46 1    
    88   45   47 1    
    89   45  101 1    
    90   46  102 1    
    91   46  103 1    
    92   46  104 1    
    93   47   48 2    
    94   47   49 am   BACKBONE|DICT|INTERRES
    95   49   50 1    
    96   49  105 1    
    97   50   51 1    
    98   50   52 1    
    99   50  106 1    
   100   51  107 1    
   101   51  108 1    
   102   51  109 1    
   103   52   53 2    
   104   52   54 am   BACKBONE|DICT|INTERRES
   105   54   55 1    
   106   54  110 1    
   107   55   56 1    
   108   55   59 1    
   109   55  111 1    
   110   56   57 am   BACKBONE|DICT|INTERRES
   111   56   58 2    
   112   57  112 1    
   113   57  113 1    
   114   59   60 1    
   115   59  114 1    
   116   59  115 1    
   117   60   61 1    
   118   61  116 1    
   119   61  117 1    
@<TRIPOS>SUBSTRUCTURE
     1 UNK         1 GROUP             0       ****    0 ROOT    
