@<TRIPOS>MOLECULE
3R8
117   119    1
SMALL
USER_CHARGES


@<TRIPOS>ATOM
      1 CA         16.0189  -26.4262  -39.1127 C.3       0 UNK        -0.2013 
      2 C          15.8996  -26.1464  -40.6032 C.2       0 UNK         0.4866 
      3 O          15.6009  -25.0179  -40.9942 O.2       0 UNK        -0.5176 
      4 N          16.1307  -27.1684  -41.4337 N.am      1 UNK        -0.4884 
      5 CA         16.1896  -27.0740  -42.8928 C.3       1 UNK         0.0853 
      6 C6         15.7661  -28.4160  -43.5360 C.3       10 UNK        -0.0849 
      7 S7         15.7698  -28.4191  -45.3593 S.3       10 UNK        -0.2776 
      8 C8         15.9507  -30.1999  -45.6949 C.3       10 UNK         0.0316 
      9 C9         17.3896  -30.6736  -45.5367 C.ar      10 UNK        -0.0863 
     10 C10        17.8259  -31.2464  -44.3362 C.ar      10 UNK        -0.1009 
     11 C11        19.1368  -31.7190  -44.2055 C.ar      10 UNK        -0.0712 
     12 C12        20.0072  -31.6153  -45.2935 C.ar      10 UNK        -0.0894 
     13 C13        19.5846  -31.0496  -46.4980 C.ar      10 UNK        -0.0745 
     14 C14        18.2765  -30.5726  -46.6127 C.ar      10 UNK        -0.0972 
     15 C15        20.5394  -30.9931  -47.6794 C.3       10 UNK         0.0209 
     16 S16        21.8965  -29.8175  -47.3967 S.3       10 UNK        -0.2568 
     17 C17        21.0737  -28.2157  -47.7043 C.3       10 UNK        -0.0983 
     18 CA         21.3138  -27.1450  -46.6112 C.3       3 UNK         0.0876 
     19 N          20.6939  -27.4930  -45.3208 N.am      3 UNK        -0.4424 
     20 C          20.5603  -26.6185  -44.3113 C.2       2 UNK         0.4918 
     21 O          20.8488  -25.4236  -44.4105 O.2       2 UNK        -0.4875 
     22 CA         20.0543  -27.1715  -42.9644 C.3       2 UNK         0.0481 
     23 CB         20.4571  -26.2522  -41.7913 C.3       2 UNK        -0.1831 
     24 N          18.6092  -27.4235  -42.9115 N.am      2 UNK        -0.4498 
     25 C          17.6053  -26.6136  -43.2913 C.2       1 UNK         0.5027 
     26 O          17.7474  -25.5309  -43.8606 O.2       1 UNK        -0.4969 
     27 C          22.8112  -26.7696  -46.4735 C.2       3 UNK         0.5005 
     28 O          23.3173  -25.9678  -47.2609 O.2       3 UNK        -0.5279 
     29 N          23.4667  -27.3235  -45.4471 N.am      4 UNK        -0.4463 
     30 CA         24.7604  -26.9196  -44.9173 C.3       4 UNK         0.0283 
     31 CB         25.8233  -27.9610  -45.3027 C.3       4 UNK        -0.1875 
     32 C          24.5979  -26.8435  -43.3956 C.2       4 UNK         0.4949 
     33 O          23.8193  -27.6162  -42.8313 O.2       4 UNK        -0.5039 
     34 N          25.3457  -25.9411  -42.7490 N.am      5 UNK        -0.4663 
     35 CA         25.2745  -25.6881  -41.3023 C.3       5 UNK         0.0242 
     36 CB         26.1004  -24.4345  -40.9703 C.3       5 UNK        -0.1982 
     37 C          25.7193  -26.8733  -40.4239 C.2       5 UNK         0.5017 
     38 O          25.3210  -26.9457  -39.2614 O.2       5 UNK        -0.5012 
     39 N          26.5308  -27.7742  -40.9925 N.am      6 UNK        -0.4439 
     40 CA         27.0127  -28.9977  -40.3507 C.3       6 UNK         0.0297 
     41 CB         28.3096  -29.4410  -41.0494 C.3       6 UNK        -0.2006 
     42 C          25.9847  -30.1467  -40.3499 C.2       6 UNK         0.4892 
     43 O          26.2188  -31.1423  -39.6626 O.2       6 UNK        -0.5089 
     44 N          24.8965  -30.0277  -41.1263 N.am      7 UNK        -0.4243 
     45 CA         23.8615  -31.0556  -41.2500 C.3       7 UNK         0.0196 
     46 CB         23.0162  -30.7644  -42.4997 C.3       7 UNK        -0.2007 
     47 C          22.9809  -31.1152  -39.9902 C.2       7 UNK         0.5020 
     48 O          22.5912  -30.0673  -39.4722 O.2       7 UNK        -0.5147 
     49 N          22.6555  -32.3338  -39.5347 N.am      8 UNK        -0.4734 
     50 CA         21.8803  -32.5892  -38.3106 C.3       8 UNK         0.0238 
     51 CB         21.8675  -34.0977  -38.0135 C.3       8 UNK        -0.1912 
     52 C          20.4462  -32.0333  -38.3558 C.2       8 UNK         0.5038 
     53 O          19.9777  -31.4776  -37.3620 O.2       8 UNK        -0.5046 
     54 N          19.8009  -32.1686  -39.5193 N.am      9 UNK        -0.4200 
     55 CA         18.5186  -31.5378  -39.8699 C.3       9 UNK         0.0839 
     56 C          18.6404  -30.0608  -40.3509 C.2       9 UNK         0.5513 
     57 N          19.7998  -29.4201  -40.2753 N.am      9 UNK        -0.7519 
     58 O          17.6621  -29.4740  -40.8051 O.2       9 UNK        -0.4960 
     59 C59        17.6464  -32.4329  -40.8050 C.3       10 UNK        -0.0876 
     60 S60        18.5000  -33.4549  -42.0662 S.3       10 UNK        -0.2414 
     61 C61        19.6577  -32.3245  -42.9061 C.3       10 UNK         0.0169 
     62 H62        16.3137  -27.4570  -38.9149 H         1 UNK         0.0903 
     63 H63        16.7654  -25.7698  -38.6664 H         1 UNK         0.0903 
     64 H64        15.0648  -26.2446  -38.6185 H         1 UNK         0.0903 
     65 H65        16.4464  -28.0559  -41.0480 H         1 UNK         0.3096 
     66 H66        15.4868  -26.3080  -43.2298 H         1 UNK         0.1121 
     67 H67        16.4029  -29.2189  -43.1702 H         1 UNK         0.0849 
     68 H68        14.7565  -28.6713  -43.2100 H         1 UNK         0.0849 
     69 H69        15.2849  -30.7683  -45.0432 H         1 UNK         0.0865 
     70 H70        15.6120  -30.3991  -46.7128 H         1 UNK         0.0865 
     71 H71        17.1403  -31.3350  -43.5074 H         1 UNK         0.1346 
     72 H72        21.0228  -31.9784  -45.2092 H         1 UNK         0.1412 
     73 H73        17.9409  -30.1380  -47.5447 H         1 UNK         0.1426 
     74 H74        20.0157  -30.7357  -48.6016 H         1 UNK         0.0716 
     75 H75        20.9643  -31.9853  -47.8386 H         1 UNK         0.0716 
     76 H76        20.0006  -28.3721  -47.8228 H         1 UNK         0.0695 
     77 H77        21.4200  -27.8441  -48.6704 H         1 UNK         0.0695 
     78 H78        20.8138  -26.2362  -46.9546 H         1 UNK         0.0983 
     79 H79        20.4172  -28.4568  -45.1960 H         1 UNK         0.3095 
     80 H80        20.5449  -28.1343  -42.8133 H         1 UNK         0.0454 
     81 H81        21.5386  -26.1102  -41.7643 H         1 UNK         0.0851 
     82 H82        20.1620  -26.6636  -40.8276 H         1 UNK         0.0851 
     83 H83        20.0010  -25.2652  -41.8782 H         1 UNK         0.0851 
     84 H84        18.3408  -28.2833  -42.4475 H         1 UNK         0.2976 
     85 H85        22.9493  -27.9332  -44.8267 H         1 UNK         0.3116 
     86 H86        25.0418  -25.9365  -45.3006 H         1 UNK         0.0646 
     87 H87        25.9085  -28.0542  -46.3854 H         1 UNK         0.0847 
     88 H88        25.5872  -28.9477  -44.9013 H         1 UNK         0.0847 
     89 H89        26.8058  -27.6783  -44.9232 H         1 UNK         0.0847 
     90 H90        25.9694  -25.3508  -43.2820 H         1 UNK         0.3040 
     91 H91        24.2301  -25.4858  -41.0531 H         1 UNK         0.1015 
     92 H92        26.0453  -24.2005  -39.9060 H         1 UNK         0.0786 
     93 H93        25.7326  -23.5614  -41.5098 H         1 UNK         0.0786 
     94 H94        27.1538  -24.5667  -41.2203 H         1 UNK         0.0786 
     95 H95        26.8063  -27.6199  -41.9513 H         1 UNK         0.3172 
     96 H96        27.2499  -28.7743  -39.3083 H         1 UNK         0.0595 
     97 H97        28.7276  -30.3286  -40.5721 H         1 UNK         0.0839 
     98 H98        29.0725  -28.6636  -41.0031 H         1 UNK         0.0839 
     99 H99        28.1407  -29.6860  -42.0988 H         1 UNK         0.0839 
    100 H100       24.7254  -29.1555  -41.6128 H         1 UNK         0.2998 
    101 H101       24.3583  -32.0185  -41.3887 H         1 UNK         0.0822 
    102 H102       23.6416  -30.5768  -43.3730 H         1 UNK         0.0787 
    103 H103       22.3849  -31.6165  -42.7395 H         1 UNK         0.0787 
    104 H104       22.3686  -29.8975  -42.3602 H         1 UNK         0.0787 
    105 H105       23.0130  -33.1449  -40.0199 H         1 UNK         0.3055 
    106 H106       22.3928  -32.0850  -37.4879 H         1 UNK         0.1106 
    107 H107       22.8773  -34.4835  -37.8721 H         1 UNK         0.0828 
    108 H108       21.3122  -34.3102  -37.0987 H         1 UNK         0.0828 
    109 H109       21.3992  -34.6668  -38.8176 H         1 UNK         0.0828 
    110 H110       20.2676  -32.6542  -40.2701 H         1 UNK         0.2931 
    111 H111       17.9475  -31.4460  -38.9441 H         1 UNK         0.0412 
    112 H112       20.6261  -29.8538  -39.8798 H         1 UNK         0.3472 
    113 H113       19.8451  -28.4588  -40.5629 H         1 UNK         0.3472 
    114 H114       17.1120  -33.1449  -40.1744 H         1 UNK         0.0970 
    115 H115       16.8525  -31.8612  -41.2872 H         1 UNK         0.0970 
    116 H116       20.5436  -32.9224  -43.1225 H         1 UNK         0.0612 
    117 H117       19.9906  -31.5253  -42.2494 H         1 UNK         0.0612 
@<TRIPOS>BOND
     1    1    2 1    
     2    1   62 1    
     3    1   63 1    
     4    1   64 1    
     5    2    3 2    
     6    2    4 am   BACKBONE|DICT|INTERRES
     7    4    5 1    
     8    4   65 1    
     9    5    6 1    
    10    5   25 1    
    11    5   66 1    
    12    6    7 1    
    13    6   67 1    
    14    6   68 1    
    15    7    8 1    
    16    8    9 1    
    17    8   69 1    
    18    8   70 1    
    19    9   10 ar   
    20    9   14 ar   
    21   10   11 ar   
    22   10   71 1    
    23   11   12 ar   
    24   11   61 1    
    25   12   13 ar   
    26   12   72 1    
    27   13   14 ar   
    28   13   15 1    
    29   14   73 1    
    30   15   16 1    
    31   15   74 1    
    32   15   75 1    
    33   16   17 1    
    34   17   18 1    
    35   17   76 1    
    36   17   77 1    
    37   18   19 1    
    38   18   27 1    
    39   18   78 1    
    40   19   20 am   BACKBONE|DICT|INTERRES
    41   19   79 1    
    42   20   21 2    
    43   20   22 1    
    44   22   23 1    
    45   22   24 1    
    46   22   80 1    
    47   23   81 1    
    48   23   82 1    
    49   23   83 1    
    50   24   25 am   BACKBONE|DICT|INTERRES
    51   24   84 1    
    52   25   26 2    
    53   27   28 2    
    54   27   29 am   BACKBONE|DICT|INTERRES
    55   29   30 1    
    56   29   85 1    
    57   30   31 1    
    58   30   32 1    
    59   30   86 1    
    60   31   87 1    
    61   31   88 1    
    62   31   89 1    
    63   32   33 2    
    64   32   34 am   BACKBONE|DICT|INTERRES
    65   34   35 1    
    66   34   90 1    
    67   35   36 1    
    68   35   37 1    
    69   35   91 1    
    70   36   92 1    
    71   36   93 1    
    72   36   94 1    
    73   37   38 2    
    74   37   39 am   BACKBONE|DICT|INTERRES
    75   39   40 1    
    76   39   95 1    
    77   40   41 1    
    78   40   42 1    
    79   40   96 1    
    80   41   97 1    
    81   41   98 1    
    82   41   99 1    
    83   42   43 2    
    84   42   44 am   BACKBONE|DICT|INTERRES
    85   44   45 1    
    86   44  100 1    
    87   45   46 1    
    88   45   47 1    
    89   45  101 1    
    90   46  102 1    
    91   46  103 1    
    92   46  104 1    
    93   47   48 2    
    94   47   49 am   BACKBONE|DICT|INTERRES
    95   49   50 1    
    96   49  105 1    
    97   50   51 1    
    98   50   52 1    
    99   50  106 1    
   100   51  107 1    
   101   51  108 1    
   102   51  109 1    
   103   52   53 2    
   104   52   54 am   BACKBONE|DICT|INTERRES
   105   54   55 1    
   106   54  110 1    
   107   55   56 1    
   108   55   59 1    
   109   55  111 1    
   110   56   57 am   BACKBONE|DICT|INTERRES
   111   56   58 2    
   112   57  112 1    
   113   57  113 1    
   114   59   60 1    
   115   59  114 1    
   116   59  115 1    
   117   60   61 1    
   118   61  116 1    
   119   61  117 1    
@<TRIPOS>SUBSTRUCTURE
     1 UNK         1 GROUP             0       ****    0 ROOT    
