@<TRIPOS>MOLECULE
3R8
117   119    1
SMALL
USER_CHARGES


@<TRIPOS>ATOM
      1 CA         14.0060  -24.1170  -45.9796 C.3       0 UNK        -0.2013 
      2 C          15.1093  -25.1610  -45.8893 C.2       0 UNK         0.4866 
      3 O          16.0351  -25.1389  -46.7005 O.2       0 UNK        -0.5176 
      4 N          15.0140  -26.0644  -44.9077 N.am      1 UNK        -0.4884 
      5 CA         15.9963  -27.1114  -44.6136 C.3       1 UNK         0.0853 
      6 C6         15.5364  -28.5104  -45.1149 C.3       10 UNK        -0.0849 
      7 S7         15.7708  -28.6923  -46.9136 S.3       10 UNK        -0.2776 
      8 C8         17.2634  -29.7475  -47.0000 C.3       10 UNK         0.0316 
      9 C9         18.5020  -29.1460  -46.3347 C.ar      10 UNK        -0.0863 
     10 C10        19.3250  -29.9526  -45.5388 C.ar      10 UNK        -0.1009 
     11 C11        20.4822  -29.4277  -44.9553 C.ar      10 UNK        -0.0712 
     12 C12        20.8063  -28.0856  -45.1545 C.ar      10 UNK        -0.0894 
     13 C13        19.9781  -27.2579  -45.9138 C.ar      10 UNK        -0.0745 
     14 C14        18.8485  -27.8031  -46.5312 C.ar      10 UNK        -0.0972 
     15 C15        20.3037  -25.7791  -46.0699 C.3       10 UNK         0.0209 
     16 S16        19.7108  -24.7973  -44.6485 S.3       10 UNK        -0.2568 
     17 C17        21.0505  -25.0358  -43.4259 C.3       10 UNK        -0.0983 
     18 CA         20.5736  -25.5018  -42.0220 C.3       3 UNK         0.0876 
     19 N          19.5868  -26.5876  -42.0827 N.am      3 UNK        -0.4424 
     20 C          18.7766  -26.9449  -41.0747 C.2       2 UNK         0.4918 
     21 O          18.7732  -26.3972  -39.9716 O.2       2 UNK        -0.4875 
     22 CA         17.8224  -28.1168  -41.3650 C.3       2 UNK         0.0481 
     23 CB         16.7657  -28.3449  -40.2630 C.3       2 UNK        -0.1831 
     24 N          17.2217  -28.0075  -42.6994 N.am      2 UNK        -0.4498 
     25 C          16.3229  -27.0987  -43.1099 C.2       1 UNK         0.5027 
     26 O          15.7851  -26.2712  -42.3687 O.2       1 UNK        -0.4969 
     27 C          21.7973  -25.8578  -41.1452 C.2       3 UNK         0.5005 
     28 O          22.5456  -24.9541  -40.7702 O.2       3 UNK        -0.5279 
     29 N          21.9915  -27.1583  -40.8643 N.am      4 UNK        -0.4463 
     30 CA         23.1254  -27.7673  -40.1574 C.3       4 UNK         0.0283 
     31 CB         23.1979  -27.2966  -38.6899 C.3       4 UNK        -0.1875 
     32 C          24.4539  -27.5983  -40.9194 C.2       4 UNK         0.4949 
     33 O          25.5044  -27.4040  -40.3063 O.2       4 UNK        -0.5039 
     34 N          24.3779  -27.7028  -42.2501 N.am      5 UNK        -0.4663 
     35 CA         25.5060  -27.6868  -43.1723 C.3       5 UNK         0.0242 
     36 CB         25.7976  -26.2349  -43.5990 C.3       5 UNK        -0.1982 
     37 C          25.1316  -28.5820  -44.3672 C.2       5 UNK         0.5017 
     38 O          24.4357  -28.0988  -45.2590 O.2       5 UNK        -0.5012 
     39 N          25.5229  -29.8657  -44.4144 N.am      6 UNK        -0.4439 
     40 CA         26.2301  -30.6543  -43.3975 C.3       6 UNK         0.0297 
     41 CB         26.6212  -32.0078  -44.0134 C.3       6 UNK        -0.2006 
     42 C          25.3797  -30.8840  -42.1370 C.2       6 UNK         0.4892 
     43 O          24.1520  -30.8780  -42.2171 O.2       6 UNK        -0.5089 
     44 N          26.0507  -31.1017  -40.9988 N.am      7 UNK        -0.4243 
     45 CA         25.4551  -31.2049  -39.6585 C.3       7 UNK         0.0196 
     46 CB         26.5857  -31.3133  -38.6222 C.3       7 UNK        -0.2007 
     47 C          24.4311  -32.3397  -39.4552 C.2       7 UNK         0.5020 
     48 O          23.7023  -32.3106  -38.4636 O.2       7 UNK        -0.5147 
     49 N          24.3766  -33.3069  -40.3815 N.am      8 UNK        -0.4734 
     50 CA         23.4662  -34.4571  -40.3728 C.3       8 UNK         0.0238 
     51 CB         23.7752  -35.3498  -41.5857 C.3       8 UNK        -0.1912 
     52 C          21.9678  -34.0979  -40.3404 C.2       8 UNK         0.5038 
     53 O          21.1860  -34.8779  -39.7947 O.2       8 UNK        -0.5046 
     54 N          21.5950  -32.9392  -40.9023 N.am      9 UNK        -0.4200 
     55 CA         20.2337  -32.3828  -40.8232 C.3       9 UNK         0.0839 
     56 C          19.9171  -31.6294  -39.4960 C.2       9 UNK         0.5513 
     57 N          20.8540  -31.4696  -38.5681 N.am      9 UNK        -0.7519 
     58 O          18.7868  -31.1921  -39.2979 O.2       9 UNK        -0.4960 
     59 C59        19.8694  -31.5503  -42.0804 C.3       10 UNK        -0.0876 
     60 S60        20.9739  -30.1195  -42.3430 S.3       10 UNK        -0.2414 
     61 C61        21.3953  -30.2910  -44.1025 C.3       10 UNK         0.0169 
     62 H62        13.2495  -24.2536  -45.2069 H         1 UNK         0.0903 
     63 H63        14.4259  -23.1173  -45.8702 H         1 UNK         0.0903 
     64 H64        13.5134  -24.1757  -46.9499 H         1 UNK         0.0903 
     65 H65        14.2764  -25.9806  -44.2205 H         1 UNK         0.3096 
     66 H66        16.9386  -26.8432  -45.0878 H         1 UNK         0.1121 
     67 H67        16.0696  -29.3280  -44.6280 H         1 UNK         0.0849 
     68 H68        14.4828  -28.6715  -44.8805 H         1 UNK         0.0849 
     69 H69        17.0251  -30.7180  -46.5616 H         1 UNK         0.0865 
     70 H70        17.4941  -29.9367  -48.0490 H         1 UNK         0.0865 
     71 H71        19.0762  -30.9937  -45.3833 H         1 UNK         0.1346 
     72 H72        21.7086  -27.6923  -44.7109 H         1 UNK         0.1412 
     73 H73        18.2190  -27.1711  -47.1441 H         1 UNK         0.1426 
     74 H74        19.8348  -25.3908  -46.9753 H         1 UNK         0.0716 
     75 H75        21.3773  -25.6372  -46.2031 H         1 UNK         0.0716 
     76 H76        21.5706  -24.0806  -43.3317 H         1 UNK         0.0695 
     77 H77        21.7951  -25.7200  -43.8302 H         1 UNK         0.0695 
     78 H78        20.0839  -24.6506  -41.5434 H         1 UNK         0.0983 
     79 H79        19.5039  -27.0612  -42.9704 H         1 UNK         0.3095 
     80 H80        18.4455  -29.0082  -41.3864 H         1 UNK         0.0454 
     81 H81        17.2468  -28.5950  -39.3165 H         1 UNK         0.0851 
     82 H82        16.1024  -29.1722  -40.5139 H         1 UNK         0.0851 
     83 H83        16.1533  -27.4605  -40.0875 H         1 UNK         0.0851 
     84 H84        17.6003  -28.6408  -43.3904 H         1 UNK         0.2976 
     85 H85        21.3145  -27.8144  -41.2304 H         1 UNK         0.3116 
     86 H86        22.9258  -28.8402  -40.1428 H         1 UNK         0.0646 
     87 H87        23.4653  -26.2424  -38.6136 H         1 UNK         0.0847 
     88 H88        22.2455  -27.4405  -38.1800 H         1 UNK         0.0847 
     89 H89        23.9493  -27.8616  -38.1370 H         1 UNK         0.0847 
     90 H90        23.4828  -27.9218  -42.6645 H         1 UNK         0.3040 
     91 H91        26.3998  -28.0733  -42.6824 H         1 UNK         0.1015 
     92 H92        26.1073  -25.6286  -42.7476 H         1 UNK         0.0786 
     93 H93        26.6025  -26.1988  -44.3340 H         1 UNK         0.0786 
     94 H94        24.9235  -25.7580  -44.0445 H         1 UNK         0.0786 
     95 H95        25.2120  -30.3971  -45.2137 H         1 UNK         0.3172 
     96 H96        27.1467  -30.1305  -43.1216 H         1 UNK         0.0595 
     97 H97        25.7445  -32.5864  -44.3086 H         1 UNK         0.0839 
     98 H98        27.1877  -32.6152  -43.3061 H         1 UNK         0.0839 
     99 H99        27.2489  -31.8772  -44.8952 H         1 UNK         0.0839 
    100 H100       27.0601  -31.1228  -41.0344 H         1 UNK         0.2998 
    101 H101       24.9195  -30.2725  -39.4726 H         1 UNK         0.0822 
    102 H102       26.1862  -31.3554  -37.6077 H         1 UNK         0.0787 
    103 H103       27.2504  -30.4502  -38.6677 H         1 UNK         0.0787 
    104 H104       27.1860  -32.2113  -38.7734 H         1 UNK         0.0787 
    105 H105       25.0005  -33.2295  -41.1710 H         1 UNK         0.3055 
    106 H106       23.6744  -35.0270  -39.4646 H         1 UNK         0.1106 
    107 H107       23.6204  -34.8197  -42.5265 H         1 UNK         0.0828 
    108 H108       24.8050  -35.7071  -41.5655 H         1 UNK         0.0828 
    109 H109       23.1304  -36.2299  -41.5979 H         1 UNK         0.0828 
    110 H110       22.2994  -32.3392  -41.3128 H         1 UNK         0.2931 
    111 H111       19.5416  -33.2270  -40.8259 H         1 UNK         0.0412 
    112 H112       21.7909  -31.8387  -38.6899 H         1 UNK         0.3472 
    113 H113       20.6178  -30.9858  -37.7170 H         1 UNK         0.3472 
    114 H114       19.8971  -32.2039  -42.9525 H         1 UNK         0.0970 
    115 H115       18.8382  -31.1993  -42.0260 H         1 UNK         0.0970 
    116 H116       22.4299  -29.9764  -44.2409 H         1 UNK         0.0612 
    117 H117       21.3601  -31.3338  -44.4192 H         1 UNK         0.0612 
@<TRIPOS>BOND
     1    1    2 1    
     2    1   62 1    
     3    1   63 1    
     4    1   64 1    
     5    2    3 2    
     6    2    4 am   BACKBONE|DICT|INTERRES
     7    4    5 1    
     8    4   65 1    
     9    5    6 1    
    10    5   25 1    
    11    5   66 1    
    12    6    7 1    
    13    6   67 1    
    14    6   68 1    
    15    7    8 1    
    16    8    9 1    
    17    8   69 1    
    18    8   70 1    
    19    9   10 ar   
    20    9   14 ar   
    21   10   11 ar   
    22   10   71 1    
    23   11   12 ar   
    24   11   61 1    
    25   12   13 ar   
    26   12   72 1    
    27   13   14 ar   
    28   13   15 1    
    29   14   73 1    
    30   15   16 1    
    31   15   74 1    
    32   15   75 1    
    33   16   17 1    
    34   17   18 1    
    35   17   76 1    
    36   17   77 1    
    37   18   19 1    
    38   18   27 1    
    39   18   78 1    
    40   19   20 am   BACKBONE|DICT|INTERRES
    41   19   79 1    
    42   20   21 2    
    43   20   22 1    
    44   22   23 1    
    45   22   24 1    
    46   22   80 1    
    47   23   81 1    
    48   23   82 1    
    49   23   83 1    
    50   24   25 am   BACKBONE|DICT|INTERRES
    51   24   84 1    
    52   25   26 2    
    53   27   28 2    
    54   27   29 am   BACKBONE|DICT|INTERRES
    55   29   30 1    
    56   29   85 1    
    57   30   31 1    
    58   30   32 1    
    59   30   86 1    
    60   31   87 1    
    61   31   88 1    
    62   31   89 1    
    63   32   33 2    
    64   32   34 am   BACKBONE|DICT|INTERRES
    65   34   35 1    
    66   34   90 1    
    67   35   36 1    
    68   35   37 1    
    69   35   91 1    
    70   36   92 1    
    71   36   93 1    
    72   36   94 1    
    73   37   38 2    
    74   37   39 am   BACKBONE|DICT|INTERRES
    75   39   40 1    
    76   39   95 1    
    77   40   41 1    
    78   40   42 1    
    79   40   96 1    
    80   41   97 1    
    81   41   98 1    
    82   41   99 1    
    83   42   43 2    
    84   42   44 am   BACKBONE|DICT|INTERRES
    85   44   45 1    
    86   44  100 1    
    87   45   46 1    
    88   45   47 1    
    89   45  101 1    
    90   46  102 1    
    91   46  103 1    
    92   46  104 1    
    93   47   48 2    
    94   47   49 am   BACKBONE|DICT|INTERRES
    95   49   50 1    
    96   49  105 1    
    97   50   51 1    
    98   50   52 1    
    99   50  106 1    
   100   51  107 1    
   101   51  108 1    
   102   51  109 1    
   103   52   53 2    
   104   52   54 am   BACKBONE|DICT|INTERRES
   105   54   55 1    
   106   54  110 1    
   107   55   56 1    
   108   55   59 1    
   109   55  111 1    
   110   56   57 am   BACKBONE|DICT|INTERRES
   111   56   58 2    
   112   57  112 1    
   113   57  113 1    
   114   59   60 1    
   115   59  114 1    
   116   59  115 1    
   117   60   61 1    
   118   61  116 1    
   119   61  117 1    
@<TRIPOS>SUBSTRUCTURE
     1 UNK         1 GROUP             0       ****    0 ROOT    
