@<TRIPOS>MOLECULE
3R8
117   119    1
SMALL
USER_CHARGES


@<TRIPOS>ATOM
      1 CA         21.2155  -24.1145  -46.5186 C.3       0 UNK        -0.2013 
      2 C          19.7959  -23.8538  -46.0219 C.2       0 UNK         0.4866 
      3 O          19.4178  -22.6952  -45.8591 O.2       0 UNK        -0.5176 
      4 N          18.9689  -24.8806  -45.7819 N.am      1 UNK        -0.4884 
      5 CA         19.2705  -26.3157  -45.8635 C.3       1 UNK         0.0853 
      6 C6         17.9971  -27.1390  -46.1910 C.3       10 UNK        -0.0849 
      7 S7         16.6367  -26.9198  -44.9948 S.3       10 UNK        -0.2776 
      8 C8         15.7489  -28.4966  -45.1908 C.3       10 UNK         0.0316 
      9 C9         16.3020  -29.5736  -44.2695 C.ar      10 UNK        -0.0863 
     10 C10        17.0684  -30.6332  -44.7693 C.ar      10 UNK        -0.1009 
     11 C11        17.5284  -31.6470  -43.9184 C.ar      10 UNK        -0.0712 
     12 C12        17.2027  -31.5870  -42.5571 C.ar      10 UNK        -0.0894 
     13 C13        16.4568  -30.5227  -42.0453 C.ar      10 UNK        -0.0745 
     14 C14        16.0063  -29.5216  -42.9060 C.ar      10 UNK        -0.0972 
     15 C15        16.1231  -30.4682  -40.5640 C.3       10 UNK         0.0209 
     16 S16        17.5765  -30.0316  -39.5632 S.3       10 UNK        -0.2568 
     17 C17        17.7846  -28.2537  -39.9155 C.3       10 UNK        -0.0983 
     18 CA         19.2526  -27.9255  -40.2837 C.3       3 UNK         0.0876 
     19 N          19.5976  -28.3185  -41.6578 N.am      3 UNK        -0.4424 
     20 C          20.8617  -28.4709  -42.0752 C.2       2 UNK         0.4918 
     21 O          21.8376  -28.3101  -41.3462 O.2       2 UNK        -0.4875 
     22 CA         21.1068  -28.8083  -43.5550 C.3       2 UNK         0.0481 
     23 CB         21.0456  -30.3214  -43.7700 C.3       2 UNK        -0.1831 
     24 N          20.2280  -28.1424  -44.5204 N.am      2 UNK        -0.4498 
     25 C          20.0341  -26.8200  -44.6159 C.2       1 UNK         0.5027 
     26 O          20.4658  -26.0169  -43.7854 O.2       1 UNK        -0.4969 
     27 C          19.5984  -26.4521  -39.9700 C.2       3 UNK         0.5005 
     28 O          19.8173  -26.1349  -38.7997 O.2       3 UNK        -0.5279 
     29 N          19.6728  -25.5841  -40.9904 N.am      4 UNK        -0.4463 
     30 CA         20.1390  -24.2012  -40.8511 C.3       4 UNK         0.0283 
     31 CB         19.4974  -23.3202  -41.9355 C.3       4 UNK        -0.1875 
     32 C          21.6730  -24.1218  -40.9186 C.2       4 UNK         0.4949 
     33 O          22.2740  -23.3522  -40.1695 O.2       4 UNK        -0.5039 
     34 N          22.2785  -24.9275  -41.8027 N.am      5 UNK        -0.4663 
     35 CA         23.7289  -25.0199  -42.0024 C.3       5 UNK         0.0242 
     36 CB         23.9971  -25.6906  -43.3595 C.3       5 UNK        -0.1982 
     37 C          24.4738  -25.7735  -40.8833 C.2       5 UNK         0.5017 
     38 O          25.6934  -25.6344  -40.7865 O.2       5 UNK        -0.5012 
     39 N          23.7390  -26.5649  -40.0882 N.am      6 UNK        -0.4439 
     40 CA         24.2103  -27.5064  -39.0652 C.3       6 UNK         0.0297 
     41 CB         24.9621  -26.7836  -37.9268 C.3       6 UNK        -0.2006 
     42 C          25.0026  -28.6751  -39.6852 C.2       6 UNK         0.4892 
     43 O          26.0826  -29.0216  -39.2021 O.2       6 UNK        -0.5089 
     44 N          24.4400  -29.2527  -40.7531 N.am      7 UNK        -0.4243 
     45 CA         24.9617  -30.4091  -41.4795 C.3       7 UNK         0.0196 
     46 CB         24.9843  -30.0743  -42.9811 C.3       7 UNK        -0.2007 
     47 C          24.0872  -31.6439  -41.2096 C.2       7 UNK         0.5020 
     48 O          22.9650  -31.5193  -40.7164 O.2       7 UNK        -0.5147 
     49 N          24.6127  -32.8225  -41.5638 N.am      8 UNK        -0.4734 
     50 CA         23.9828  -34.1302  -41.3350 C.3       8 UNK         0.0238 
     51 CB         25.0877  -35.1483  -40.9943 C.3       8 UNK        -0.1912 
     52 C          23.1119  -34.6215  -42.5112 C.2       8 UNK         0.5038 
     53 O          22.7822  -35.8079  -42.5506 O.2       8 UNK        -0.5046 
     54 N          22.7749  -33.7273  -43.4517 N.am      9 UNK        -0.4200 
     55 CA         22.0082  -33.9964  -44.6868 C.3       9 UNK         0.0839 
     56 C          22.7870  -34.8176  -45.7603 C.2       9 UNK         0.5513 
     57 N          24.1014  -34.9727  -45.6530 N.am      9 UNK        -0.7519 
     58 O          22.1991  -35.2955  -46.7274 O.2       9 UNK        -0.4960 
     59 C59        20.5758  -34.5619  -44.4359 C.3       10 UNK        -0.0876 
     60 S60        19.5721  -33.5124  -43.3321 S.3       10 UNK        -0.2414 
     61 C61        18.3557  -32.7983  -44.4974 C.3       10 UNK         0.0169 
     62 H62        21.7675  -23.1785  -46.6024 H         1 UNK         0.0903 
     63 H63        21.7638  -24.7568  -45.8318 H         1 UNK         0.0903 
     64 H64        21.2010  -24.5798  -47.5037 H         1 UNK         0.0903 
     65 H65        18.0433  -24.6762  -45.4322 H         1 UNK         0.3096 
     66 H66        19.9550  -26.4693  -46.6997 H         1 UNK         0.1121 
     67 H67        17.6196  -26.8351  -47.1689 H         1 UNK         0.0849 
     68 H68        18.2286  -28.1996  -46.2973 H         1 UNK         0.0849 
     69 H69        14.6957  -28.3347  -44.9557 H         1 UNK         0.0865 
     70 H70        15.7756  -28.8171  -46.2335 H         1 UNK         0.0865 
     71 H71        17.2950  -30.6776  -45.8259 H         1 UNK         0.1346 
     72 H72        17.5343  -32.3632  -41.8818 H         1 UNK         0.1412 
     73 H73        15.4154  -28.7024  -42.5185 H         1 UNK         0.1426 
     74 H74        15.7562  -31.4443  -40.2435 H         1 UNK         0.0716 
     75 H75        15.3172  -29.7595  -40.3658 H         1 UNK         0.0716 
     76 H76        17.1038  -27.9278  -40.7030 H         1 UNK         0.0695 
     77 H77        17.4755  -27.7239  -39.0120 H         1 UNK         0.0695 
     78 H78        19.8921  -28.5071  -39.6146 H         1 UNK         0.0983 
     79 H79        18.8361  -28.4812  -42.3009 H         1 UNK         0.3095 
     80 H80        22.1205  -28.4828  -43.7910 H         1 UNK         0.0454 
     81 H81        21.6956  -30.8491  -43.0723 H         1 UNK         0.0851 
     82 H82        20.0363  -30.6872  -43.6026 H         1 UNK         0.0851 
     83 H83        21.3489  -30.6004  -44.7787 H         1 UNK         0.0851 
     84 H84        19.8220  -28.7380  -45.2266 H         1 UNK         0.2976 
     85 H85        19.5467  -25.9233  -41.9373 H         1 UNK         0.3116 
     86 H86        19.8244  -23.8106  -39.8808 H         1 UNK         0.0646 
     87 H87        19.7919  -22.2774  -41.8115 H         1 UNK         0.0847 
     88 H88        18.4093  -23.3574  -41.8854 H         1 UNK         0.0847 
     89 H89        19.7964  -23.6214  -42.9392 H         1 UNK         0.0847 
     90 H90        21.6940  -25.4767  -42.4274 H         1 UNK         0.3040 
     91 H91        24.1343  -24.0061  -42.0341 H         1 UNK         0.1015 
     92 H92        23.6206  -26.7131  -43.3828 H         1 UNK         0.0786 
     93 H93        25.0665  -25.7333  -43.5706 H         1 UNK         0.0786 
     94 H94        23.5289  -25.1395  -44.1745 H         1 UNK         0.0786 
     95 H95        22.7614  -26.6597  -40.3354 H         1 UNK         0.3172 
     96 H96        23.3120  -27.9483  -38.6312 H         1 UNK         0.0595 
     97 H97        25.1820  -27.4719  -37.1098 H         1 UNK         0.0839 
     98 H98        25.9130  -26.3691  -38.2624 H         1 UNK         0.0839 
     99 H99        24.3675  -25.9691  -37.5133 H         1 UNK         0.0839 
    100 H100       23.5038  -28.9497  -41.0166 H         1 UNK         0.2998 
    101 H101       25.9796  -30.6328  -41.1532 H         1 UNK         0.0822 
    102 H102       25.4169  -30.8884  -43.5636 H         1 UNK         0.0787 
    103 H103       23.9844  -29.8890  -43.3707 H         1 UNK         0.0787 
    104 H104       25.5853  -29.1857  -43.1762 H         1 UNK         0.0787 
    105 H105       25.5311  -32.8368  -41.9861 H         1 UNK         0.3055 
    106 H106       23.3178  -34.0616  -40.4707 H         1 UNK         0.1106 
    107 H107       25.6833  -34.8178  -40.1431 H         1 UNK         0.0828 
    108 H108       24.6642  -36.1176  -40.7275 H         1 UNK         0.0828 
    109 H109       25.7631  -35.3087  -41.8355 H         1 UNK         0.0828 
    110 H110       23.1009  -32.7809  -43.3331 H         1 UNK         0.2931 
    111 H111       21.8780  -33.0177  -45.1490 H         1 UNK         0.0412 
    112 H112       24.5953  -35.4957  -46.3593 H         1 UNK         0.3472 
    113 H113       24.6025  -34.5798  -44.8731 H         1 UNK         0.3472 
    114 H114       20.6276  -35.5619  -44.0037 H         1 UNK         0.0970 
    115 H115       20.0411  -34.6817  -45.3798 H         1 UNK         0.0970 
    116 H116       18.8947  -32.4495  -45.3798 H         1 UNK         0.0612 
    117 H117       17.6792  -33.5859  -44.8312 H         1 UNK         0.0612 
@<TRIPOS>BOND
     1    1    2 1    
     2    1   62 1    
     3    1   63 1    
     4    1   64 1    
     5    2    3 2    
     6    2    4 am   BACKBONE|DICT|INTERRES
     7    4    5 1    
     8    4   65 1    
     9    5    6 1    
    10    5   25 1    
    11    5   66 1    
    12    6    7 1    
    13    6   67 1    
    14    6   68 1    
    15    7    8 1    
    16    8    9 1    
    17    8   69 1    
    18    8   70 1    
    19    9   10 ar   
    20    9   14 ar   
    21   10   11 ar   
    22   10   71 1    
    23   11   12 ar   
    24   11   61 1    
    25   12   13 ar   
    26   12   72 1    
    27   13   14 ar   
    28   13   15 1    
    29   14   73 1    
    30   15   16 1    
    31   15   74 1    
    32   15   75 1    
    33   16   17 1    
    34   17   18 1    
    35   17   76 1    
    36   17   77 1    
    37   18   19 1    
    38   18   27 1    
    39   18   78 1    
    40   19   20 am   BACKBONE|DICT|INTERRES
    41   19   79 1    
    42   20   21 2    
    43   20   22 1    
    44   22   23 1    
    45   22   24 1    
    46   22   80 1    
    47   23   81 1    
    48   23   82 1    
    49   23   83 1    
    50   24   25 am   BACKBONE|DICT|INTERRES
    51   24   84 1    
    52   25   26 2    
    53   27   28 2    
    54   27   29 am   BACKBONE|DICT|INTERRES
    55   29   30 1    
    56   29   85 1    
    57   30   31 1    
    58   30   32 1    
    59   30   86 1    
    60   31   87 1    
    61   31   88 1    
    62   31   89 1    
    63   32   33 2    
    64   32   34 am   BACKBONE|DICT|INTERRES
    65   34   35 1    
    66   34   90 1    
    67   35   36 1    
    68   35   37 1    
    69   35   91 1    
    70   36   92 1    
    71   36   93 1    
    72   36   94 1    
    73   37   38 2    
    74   37   39 am   BACKBONE|DICT|INTERRES
    75   39   40 1    
    76   39   95 1    
    77   40   41 1    
    78   40   42 1    
    79   40   96 1    
    80   41   97 1    
    81   41   98 1    
    82   41   99 1    
    83   42   43 2    
    84   42   44 am   BACKBONE|DICT|INTERRES
    85   44   45 1    
    86   44  100 1    
    87   45   46 1    
    88   45   47 1    
    89   45  101 1    
    90   46  102 1    
    91   46  103 1    
    92   46  104 1    
    93   47   48 2    
    94   47   49 am   BACKBONE|DICT|INTERRES
    95   49   50 1    
    96   49  105 1    
    97   50   51 1    
    98   50   52 1    
    99   50  106 1    
   100   51  107 1    
   101   51  108 1    
   102   51  109 1    
   103   52   53 2    
   104   52   54 am   BACKBONE|DICT|INTERRES
   105   54   55 1    
   106   54  110 1    
   107   55   56 1    
   108   55   59 1    
   109   55  111 1    
   110   56   57 am   BACKBONE|DICT|INTERRES
   111   56   58 2    
   112   57  112 1    
   113   57  113 1    
   114   59   60 1    
   115   59  114 1    
   116   59  115 1    
   117   60   61 1    
   118   61  116 1    
   119   61  117 1    
@<TRIPOS>SUBSTRUCTURE
     1 UNK         1 GROUP             0       ****    0 ROOT    
