@<TRIPOS>MOLECULE
3R8
117   119    1
SMALL
USER_CHARGES


@<TRIPOS>ATOM
      1 CA         15.1743  -23.0251  -45.0154 C.3       0 UNK        -0.2013 
      2 C          15.2656  -24.5434  -45.0397 C.2       0 UNK         0.4866 
      3 O          14.9426  -25.1615  -46.0545 O.2       0 UNK        -0.5176 
      4 N          15.7046  -25.1501  -43.9328 N.am      1 UNK        -0.4884 
      5 CA         15.9167  -26.5885  -43.7855 C.3       1 UNK         0.0853 
      6 C6         14.5888  -27.3536  -43.5383 C.3       10 UNK        -0.0849 
      7 S7         14.6361  -29.1500  -43.8743 S.3       10 UNK        -0.2776 
      8 C8         15.0875  -29.2575  -45.6420 C.3       10 UNK         0.0316 
      9 C9         16.5794  -29.5156  -45.8143 C.ar      10 UNK        -0.0863 
     10 C10        17.1315  -30.7195  -45.3690 C.ar      10 UNK        -0.1009 
     11 C11        18.5082  -30.9457  -45.4503 C.ar      10 UNK        -0.0712 
     12 C12        19.3388  -29.9582  -45.9876 C.ar      10 UNK        -0.0894 
     13 C13        18.7947  -28.7637  -46.4668 C.ar      10 UNK        -0.0745 
     14 C14        17.4134  -28.5581  -46.3996 C.ar      10 UNK        -0.0972 
     15 C15        19.6903  -27.6885  -47.0598 C.3       10 UNK         0.0209 
     16 S16        19.8929  -26.2876  -45.9171 S.3       10 UNK        -0.2568 
     17 C17        21.2939  -26.8297  -44.8800 C.3       10 UNK        -0.0983 
     18 CA         21.1767  -26.2497  -43.4426 C.3       3 UNK         0.0876 
     19 N          20.0708  -26.8436  -42.6842 N.am      3 UNK        -0.4424 
     20 C          19.9742  -28.0892  -42.2017 C.2       2 UNK         0.4918 
     21 O          20.9105  -28.8858  -42.1431 O.2       2 UNK        -0.4875 
     22 CA         18.5776  -28.5430  -41.7300 C.3       2 UNK         0.0481 
     23 CB         18.3507  -28.2156  -40.2406 C.3       2 UNK        -0.1831 
     24 N          17.4704  -28.0616  -42.5764 N.am      2 UNK        -0.4498 
     25 C          16.9980  -26.8139  -42.7126 C.2       1 UNK         0.5027 
     26 O          17.4281  -25.8493  -42.0722 O.2       1 UNK        -0.4969 
     27 C          22.5156  -26.1943  -42.6743 C.2       3 UNK         0.5005 
     28 O          23.5712  -26.4143  -43.2707 O.2       3 UNK        -0.5279 
     29 N          22.4402  -25.8364  -41.3807 N.am      4 UNK        -0.4463 
     30 CA         23.5215  -25.3982  -40.4819 C.3       4 UNK         0.0283 
     31 CB         23.8049  -23.8980  -40.7115 C.3       4 UNK        -0.1875 
     32 C          24.8021  -26.2542  -40.5369 C.2       4 UNK         0.4949 
     33 O          24.8988  -27.2451  -39.8136 O.2       4 UNK        -0.5039 
     34 N          25.7468  -25.8712  -41.4098 N.am      5 UNK        -0.4663 
     35 CA         27.0134  -26.5582  -41.6898 C.3       5 UNK         0.0242 
     36 CB         27.8241  -25.7195  -42.6909 C.3       5 UNK        -0.1982 
     37 C          26.8622  -28.0055  -42.1982 C.2       5 UNK         0.5017 
     38 O          27.8130  -28.7790  -42.0813 O.2       5 UNK        -0.5012 
     39 N          25.6715  -28.3652  -42.7020 N.am      6 UNK        -0.4439 
     40 CA         25.2630  -29.7429  -42.9984 C.3       6 UNK         0.0297 
     41 CB         23.9886  -29.7176  -43.8582 C.3       6 UNK        -0.2006 
     42 C          25.0618  -30.6226  -41.7431 C.2       6 UNK         0.4892 
     43 O          24.8320  -31.8224  -41.8961 O.2       6 UNK        -0.5089 
     44 N          25.1444  -30.0305  -40.5394 N.am      7 UNK        -0.4243 
     45 CA         25.0892  -30.6665  -39.2177 C.3       7 UNK         0.0196 
     46 CB         26.2992  -31.6027  -39.0096 C.3       7 UNK        -0.2007 
     47 C          23.7398  -31.3504  -38.9429 C.2       7 UNK         0.5020 
     48 O          23.7073  -32.4453  -38.3792 O.2       7 UNK        -0.5147 
     49 N          22.6541  -30.6825  -39.3619 N.am      8 UNK        -0.4734 
     50 CA         21.2654  -31.1547  -39.3367 C.3       8 UNK         0.0238 
     51 CB         20.7442  -31.2857  -37.8894 C.3       8 UNK        -0.1912 
     52 C          21.0807  -32.4328  -40.1747 C.2       8 UNK         0.5038 
     53 O          20.5357  -33.4243  -39.6848 O.2       8 UNK        -0.5046 
     54 N          21.5435  -32.3624  -41.4296 N.am      9 UNK        -0.4200 
     55 CA         21.4545  -33.4215  -42.4473 C.3       9 UNK         0.0839 
     56 C          22.3685  -34.6431  -42.1403 C.2       9 UNK         0.5513 
     57 N          23.5958  -34.4229  -41.6877 N.am      9 UNK        -0.7519 
     58 O          21.9793  -35.7946  -42.3217 O.2       9 UNK        -0.4960 
     59 C59        19.9894  -33.8201  -42.7973 C.3       10 UNK        -0.0876 
     60 S60        18.9281  -32.3775  -43.1425 S.3       10 UNK        -0.2414 
     61 C61        19.0937  -32.2531  -44.9451 C.3       10 UNK         0.0169 
     62 H62        15.4841  -22.6133  -44.0550 H         1 UNK         0.0903 
     63 H63        15.8121  -22.5987  -45.7891 H         1 UNK         0.0903 
     64 H64        14.1492  -22.7080  -45.2053 H         1 UNK         0.0903 
     65 H65        16.0245  -24.6111  -43.1360 H         1 UNK         0.3096 
     66 H66        16.3553  -26.9211  -44.7200 H         1 UNK         0.1121 
     67 H67        13.7998  -26.9435  -44.1707 H         1 UNK         0.0849 
     68 H68        14.2460  -27.1991  -42.5135 H         1 UNK         0.0849 
     69 H69        14.5332  -30.0795  -46.0973 H         1 UNK         0.0865 
     70 H70        14.7750  -28.3523  -46.1659 H         1 UNK         0.0865 
     71 H71        16.4917  -31.4731  -44.9291 H         1 UNK         0.1346 
     72 H72        20.4069  -30.1205  -46.0371 H         1 UNK         0.1412 
     73 H73        16.9971  -27.6331  -46.7763 H         1 UNK         0.1426 
     74 H74        20.6676  -28.0914  -47.3308 H         1 UNK         0.0716 
     75 H75        19.2445  -27.3230  -47.9860 H         1 UNK         0.0716 
     76 H76        22.1994  -26.4844  -45.3819 H         1 UNK         0.0695 
     77 H77        21.3521  -27.9189  -44.8543 H         1 UNK         0.0695 
     78 H78        20.9111  -25.1967  -43.5514 H         1 UNK         0.0983 
     79 H79        19.2339  -26.2729  -42.6149 H         1 UNK         0.3095 
     80 H80        18.5592  -29.6292  -41.8273 H         1 UNK         0.0454 
     81 H81        17.3874  -28.5913  -39.8962 H         1 UNK         0.0851 
     82 H82        18.3823  -27.1444  -40.0424 H         1 UNK         0.0851 
     83 H83        19.1168  -28.6736  -39.6159 H         1 UNK         0.0851 
     84 H84        17.0581  -28.7714  -43.1701 H         1 UNK         0.2976 
     85 H85        21.5101  -25.7529  -40.9943 H         1 UNK         0.3116 
     86 H86        23.1354  -25.5025  -39.4665 H         1 UNK         0.0646 
     87 H87        22.9334  -23.2935  -40.4600 H         1 UNK         0.0847 
     88 H88        24.6252  -23.5490  -40.0823 H         1 UNK         0.0847 
     89 H89        24.0649  -23.6789  -41.7476 H         1 UNK         0.0847 
     90 H90        25.5380  -25.0746  -41.9943 H         1 UNK         0.3040 
     91 H91        27.5701  -26.6093  -40.7517 H         1 UNK         0.1015 
     92 H92        27.3009  -25.6116  -43.6419 H         1 UNK         0.0786 
     93 H93        28.7888  -26.1843  -42.9003 H         1 UNK         0.0786 
     94 H94        28.0264  -24.7213  -42.3019 H         1 UNK         0.0786 
     95 H95        24.9581  -27.6450  -42.8059 H         1 UNK         0.3172 
     96 H96        26.0561  -30.2082  -43.5869 H         1 UNK         0.0595 
     97 H97        23.1585  -29.2545  -43.3272 H         1 UNK         0.0839 
     98 H98        23.6775  -30.7259  -44.1351 H         1 UNK         0.0839 
     99 H99        24.1433  -29.1609  -44.7825 H         1 UNK         0.0839 
    100 H100       25.2553  -29.0206  -40.5133 H         1 UNK         0.2998 
    101 H101       25.1715  -29.8581  -38.4894 H         1 UNK         0.0822 
    102 H102       26.3365  -31.9711  -37.9837 H         1 UNK         0.0787 
    103 H103       26.2557  -32.4729  -39.6655 H         1 UNK         0.0787 
    104 H104       27.2386  -31.0843  -39.2017 H         1 UNK         0.0787 
    105 H105       22.8057  -29.7938  -39.8201 H         1 UNK         0.3055 
    106 H106       20.6691  -30.3885  -39.8318 H         1 UNK         0.1106 
    107 H107       19.6821  -31.5339  -37.8806 H         1 UNK         0.0828 
    108 H108       21.2635  -32.0699  -37.3379 H         1 UNK         0.0828 
    109 H109       20.8629  -30.3527  -37.3389 H         1 UNK         0.0828 
    110 H110       21.9965  -31.5105  -41.7257 H         1 UNK         0.2931 
    111 H111       21.8781  -32.9813  -43.3508 H         1 UNK         0.0412 
    112 H112       24.1959  -35.2059  -41.4847 H         1 UNK         0.3472 
    113 H113       23.9561  -33.4751  -41.6068 H         1 UNK         0.3472 
    114 H114       19.5398  -34.3788  -41.9749 H         1 UNK         0.0970 
    115 H115       19.9709  -34.4928  -43.6566 H         1 UNK         0.0970 
    116 H116       18.5812  -33.0926  -45.4170 H         1 UNK         0.0612 
    117 H117       20.1474  -32.3328  -45.2171 H         1 UNK         0.0612 
@<TRIPOS>BOND
     1    1    2 1    
     2    1   62 1    
     3    1   63 1    
     4    1   64 1    
     5    2    3 2    
     6    2    4 am   BACKBONE|DICT|INTERRES
     7    4    5 1    
     8    4   65 1    
     9    5    6 1    
    10    5   25 1    
    11    5   66 1    
    12    6    7 1    
    13    6   67 1    
    14    6   68 1    
    15    7    8 1    
    16    8    9 1    
    17    8   69 1    
    18    8   70 1    
    19    9   10 ar   
    20    9   14 ar   
    21   10   11 ar   
    22   10   71 1    
    23   11   12 ar   
    24   11   61 1    
    25   12   13 ar   
    26   12   72 1    
    27   13   14 ar   
    28   13   15 1    
    29   14   73 1    
    30   15   16 1    
    31   15   74 1    
    32   15   75 1    
    33   16   17 1    
    34   17   18 1    
    35   17   76 1    
    36   17   77 1    
    37   18   19 1    
    38   18   27 1    
    39   18   78 1    
    40   19   20 am   BACKBONE|DICT|INTERRES
    41   19   79 1    
    42   20   21 2    
    43   20   22 1    
    44   22   23 1    
    45   22   24 1    
    46   22   80 1    
    47   23   81 1    
    48   23   82 1    
    49   23   83 1    
    50   24   25 am   BACKBONE|DICT|INTERRES
    51   24   84 1    
    52   25   26 2    
    53   27   28 2    
    54   27   29 am   BACKBONE|DICT|INTERRES
    55   29   30 1    
    56   29   85 1    
    57   30   31 1    
    58   30   32 1    
    59   30   86 1    
    60   31   87 1    
    61   31   88 1    
    62   31   89 1    
    63   32   33 2    
    64   32   34 am   BACKBONE|DICT|INTERRES
    65   34   35 1    
    66   34   90 1    
    67   35   36 1    
    68   35   37 1    
    69   35   91 1    
    70   36   92 1    
    71   36   93 1    
    72   36   94 1    
    73   37   38 2    
    74   37   39 am   BACKBONE|DICT|INTERRES
    75   39   40 1    
    76   39   95 1    
    77   40   41 1    
    78   40   42 1    
    79   40   96 1    
    80   41   97 1    
    81   41   98 1    
    82   41   99 1    
    83   42   43 2    
    84   42   44 am   BACKBONE|DICT|INTERRES
    85   44   45 1    
    86   44  100 1    
    87   45   46 1    
    88   45   47 1    
    89   45  101 1    
    90   46  102 1    
    91   46  103 1    
    92   46  104 1    
    93   47   48 2    
    94   47   49 am   BACKBONE|DICT|INTERRES
    95   49   50 1    
    96   49  105 1    
    97   50   51 1    
    98   50   52 1    
    99   50  106 1    
   100   51  107 1    
   101   51  108 1    
   102   51  109 1    
   103   52   53 2    
   104   52   54 am   BACKBONE|DICT|INTERRES
   105   54   55 1    
   106   54  110 1    
   107   55   56 1    
   108   55   59 1    
   109   55  111 1    
   110   56   57 am   BACKBONE|DICT|INTERRES
   111   56   58 2    
   112   57  112 1    
   113   57  113 1    
   114   59   60 1    
   115   59  114 1    
   116   59  115 1    
   117   60   61 1    
   118   61  116 1    
   119   61  117 1    
@<TRIPOS>SUBSTRUCTURE
     1 UNK         1 GROUP             0       ****    0 ROOT    
