@<TRIPOS>MOLECULE
3R8
117   119    1
SMALL
USER_CHARGES


@<TRIPOS>ATOM
      1 CA         15.0170  -23.1696  -48.5517 C.3       0 UNK        -0.2013 
      2 C          16.1248  -24.1229  -48.1287 C.2       0 UNK         0.4866 
      3 O          17.1758  -24.1637  -48.7697 O.2       0 UNK        -0.5176 
      4 N          15.8954  -24.8970  -47.0612 N.am      1 UNK        -0.4884 
      5 CA         16.8643  -25.8350  -46.4868 C.3       1 UNK         0.0853 
      6 C6         16.2122  -26.7607  -45.4309 C.3       10 UNK        -0.0849 
      7 S7         15.0050  -27.9375  -46.1222 S.3       10 UNK        -0.2776 
      8 C8         15.8378  -29.5405  -45.8122 C.3       10 UNK         0.0316 
      9 C9         16.1544  -29.8778  -44.3485 C.ar      10 UNK        -0.0863 
     10 C10        17.0206  -30.9464  -44.0878 C.ar      10 UNK        -0.1009 
     11 C11        17.3474  -31.3020  -42.7755 C.ar      10 UNK        -0.0712 
     12 C12        16.8074  -30.5765  -41.7123 C.ar      10 UNK        -0.0894 
     13 C13        15.9575  -29.4946  -41.9509 C.ar      10 UNK        -0.0745 
     14 C14        15.6168  -29.1654  -43.2658 C.ar      10 UNK        -0.0972 
     15 C15        15.4161  -28.6778  -40.7861 C.3       10 UNK         0.0209 
     16 S16        16.7492  -27.8737  -39.8363 S.3       10 UNK        -0.2568 
     17 C17        17.4504  -26.7027  -41.0514 C.3       10 UNK        -0.0983 
     18 CA         18.7308  -27.2207  -41.7561 C.3       3 UNK         0.0876 
     19 N          19.1311  -26.3214  -42.8408 N.am      3 UNK        -0.4424 
     20 C          20.0602  -26.6037  -43.7628 C.2       2 UNK         0.4918 
     21 O          20.6544  -27.6802  -43.8318 O.2       2 UNK        -0.4875 
     22 CA         20.2739  -25.5440  -44.8545 C.3       2 UNK         0.0481 
     23 CB         21.6420  -25.6767  -45.5477 C.3       2 UNK        -0.1831 
     24 N          19.2088  -25.7421  -45.8332 N.am      2 UNK        -0.4498 
     25 C          18.0343  -25.1018  -45.8044 C.2       1 UNK         0.5027 
     26 O          17.8268  -24.0672  -45.1646 O.2       1 UNK        -0.4969 
     27 C          19.9064  -27.4306  -40.7787 C.2       3 UNK         0.5005 
     28 O          20.5292  -26.4498  -40.3606 O.2       3 UNK        -0.5279 
     29 N          20.1954  -28.7004  -40.4584 N.am      4 UNK        -0.4463 
     30 CA         21.2910  -29.2126  -39.6239 C.3       4 UNK         0.0283 
     31 CB         21.2259  -28.6721  -38.1828 C.3       4 UNK        -0.1875 
     32 C          22.6875  -29.0134  -40.2359 C.2       4 UNK         0.4949 
     33 O          23.4296  -29.9891  -40.3542 O.2       4 UNK        -0.5039 
     34 N          23.0177  -27.7792  -40.6378 N.am      5 UNK        -0.4663 
     35 CA         24.2898  -27.3492  -41.2309 C.3       5 UNK         0.0242 
     36 CB         24.3943  -27.8639  -42.6855 C.3       5 UNK        -0.1982 
     37 C          25.4856  -27.7299  -40.3318 C.2       5 UNK         0.5017 
     38 O          25.4666  -27.4063  -39.1430 O.2       5 UNK        -0.5012 
     39 N          26.4727  -28.4486  -40.8819 N.am      6 UNK        -0.4439 
     40 CA         27.6169  -29.0144  -40.1603 C.3       6 UNK         0.0297 
     41 CB         28.8364  -29.0314  -41.1018 C.3       6 UNK        -0.2006 
     42 C          27.2956  -30.4105  -39.5820 C.2       6 UNK         0.4892 
     43 O          28.1082  -31.3268  -39.7167 O.2       6 UNK        -0.5089 
     44 N          26.1102  -30.5471  -38.9667 N.am      7 UNK        -0.4243 
     45 CA         25.5193  -31.7726  -38.4088 C.3       7 UNK         0.0196 
     46 CB         26.3123  -32.2517  -37.1740 C.3       7 UNK        -0.2007 
     47 C          25.3271  -32.8736  -39.4724 C.2       7 UNK         0.5020 
     48 O          25.6684  -34.0343  -39.2364 O.2       7 UNK        -0.5147 
     49 N          24.7964  -32.4775  -40.6350 N.am      8 UNK        -0.4734 
     50 CA         24.6100  -33.3371  -41.8102 C.3       8 UNK         0.0238 
     51 CB         25.9491  -33.4774  -42.5613 C.3       8 UNK        -0.1912 
     52 C          23.5045  -32.8586  -42.7696 C.2       8 UNK         0.5038 
     53 O          23.1073  -33.6404  -43.6349 O.2       8 UNK        -0.5046 
     54 N          23.0366  -31.6117  -42.6134 N.am      9 UNK        -0.4200 
     55 CA         22.0856  -30.8854  -43.4726 C.3       9 UNK         0.0839 
     56 C          22.6642  -30.5116  -44.8664 C.2       9 UNK         0.5513 
     57 N          22.2071  -29.4065  -45.4340 N.am      9 UNK        -0.7519 
     58 O          23.5013  -31.1990  -45.4462 O.2       9 UNK        -0.4960 
     59 C59        20.6946  -31.5654  -43.5997 C.3       10 UNK        -0.0876 
     60 S60        19.9274  -31.9104  -41.9815 S.3       10 UNK        -0.2414 
     61 C61        18.2751  -32.4732  -42.4918 C.3       10 UNK         0.0169 
     62 H62        15.3737  -22.1406  -48.5149 H         1 UNK         0.0903 
     63 H63        14.7051  -23.3861  -49.5731 H         1 UNK         0.0903 
     64 H64        14.1422  -23.2485  -47.9064 H         1 UNK         0.0903 
     65 H65        15.0173  -24.8200  -46.5679 H         1 UNK         0.3096 
     66 H66        17.2636  -26.4469  -47.2992 H         1 UNK         0.1121 
     67 H67        15.7080  -26.1698  -44.6632 H         1 UNK         0.0849 
     68 H68        16.9797  -27.3297  -44.9024 H         1 UNK         0.0849 
     69 H69        15.2084  -30.3338  -46.2177 H         1 UNK         0.0865 
     70 H70        16.7623  -29.5584  -46.3917 H         1 UNK         0.0865 
     71 H71        17.4405  -31.5082  -44.9113 H         1 UNK         0.1346 
     72 H72        17.0641  -30.8426  -40.6957 H         1 UNK         0.1412 
     73 H73        14.9393  -28.3413  -43.4351 H         1 UNK         0.1426 
     74 H74        14.8572  -29.3371  -40.1205 H         1 UNK         0.0716 
     75 H75        14.7116  -27.9184  -41.1290 H         1 UNK         0.0716 
     76 H76        17.6538  -25.7614  -40.5374 H         1 UNK         0.0695 
     77 H77        16.6834  -26.4764  -41.7940 H         1 UNK         0.0695 
     78 H78        18.4954  -28.1805  -42.2215 H         1 UNK         0.0983 
     79 H79        18.6930  -25.4118  -42.8564 H         1 UNK         0.3095 
     80 H80        20.2172  -24.5527  -44.3998 H         1 UNK         0.0454 
     81 H81        21.7491  -26.6282  -46.0684 H         1 UNK         0.0851 
     82 H82        22.4541  -25.6073  -44.8229 H         1 UNK         0.0851 
     83 H83        21.7903  -24.8815  -46.2781 H         1 UNK         0.0851 
     84 H84        19.2770  -26.5923  -46.3756 H         1 UNK         0.2976 
     85 H85        19.6359  -29.4243  -40.8900 H         1 UNK         0.3116 
     86 H86        21.1306  -30.2905  -39.5678 H         1 UNK         0.0646 
     87 H87        21.3993  -27.5967  -38.1365 H         1 UNK         0.0847 
     88 H88        21.9833  -29.1465  -37.5575 H         1 UNK         0.0847 
     89 H89        20.2564  -28.8745  -37.7278 H         1 UNK         0.0847 
     90 H90        22.3160  -27.0557  -40.4967 H         1 UNK         0.3040 
     91 H91        24.2665  -26.2588  -41.2617 H         1 UNK         0.1015 
     92 H92        24.4619  -28.9506  -42.7372 H         1 UNK         0.0786 
     93 H93        25.2660  -27.4482  -43.1926 H         1 UNK         0.0786 
     94 H94        23.5210  -27.5656  -43.2663 H         1 UNK         0.0786 
     95 H95        26.3872  -28.7023  -41.8556 H         1 UNK         0.3172 
     96 H96        27.8652  -28.3702  -39.3142 H         1 UNK         0.0595 
     97 H97        29.7287  -29.3819  -40.5812 H         1 UNK         0.0839 
     98 H98        29.0591  -28.0342  -41.4818 H         1 UNK         0.0839 
     99 H99        28.6781  -29.6899  -41.9569 H         1 UNK         0.0839 
    100 H100       25.5123  -29.7302  -38.9427 H         1 UNK         0.2998 
    101 H101       24.5176  -31.5019  -38.0712 H         1 UNK         0.0822 
    102 H102       25.8114  -33.0912  -36.6904 H         1 UNK         0.0787 
    103 H103       27.3166  -32.5828  -37.4400 H         1 UNK         0.0787 
    104 H104       26.4058  -31.4597  -36.4311 H         1 UNK         0.0787 
    105 H105       24.4865  -31.5123  -40.6928 H         1 UNK         0.3055 
    106 H106       24.3004  -34.3269  -41.4668 H         1 UNK         0.1106 
    107 H107       25.8423  -34.1109  -43.4430 H         1 UNK         0.0828 
    108 H108       26.3218  -32.5091  -42.8971 H         1 UNK         0.0828 
    109 H109       26.7154  -33.9304  -41.9322 H         1 UNK         0.0828 
    110 H110       23.3693  -31.0595  -41.8319 H         1 UNK         0.2931 
    111 H111       21.9276  -29.9411  -42.9504 H         1 UNK         0.0412 
    112 H112       22.5536  -29.1375  -46.3405 H         1 UNK         0.3472 
    113 H113       21.5627  -28.8018  -44.9289 H         1 UNK         0.3472 
    114 H114       20.7679  -32.4982  -44.1610 H         1 UNK         0.0970 
    115 H115       20.0178  -30.9211  -44.1641 H         1 UNK         0.0970 
    116 H116       17.8507  -33.0807  -41.6913 H         1 UNK         0.0612 
    117 H117       18.3589  -33.1286  -43.3601 H         1 UNK         0.0612 
@<TRIPOS>BOND
     1    1    2 1    
     2    1   62 1    
     3    1   63 1    
     4    1   64 1    
     5    2    3 2    
     6    2    4 am   BACKBONE|DICT|INTERRES
     7    4    5 1    
     8    4   65 1    
     9    5    6 1    
    10    5   25 1    
    11    5   66 1    
    12    6    7 1    
    13    6   67 1    
    14    6   68 1    
    15    7    8 1    
    16    8    9 1    
    17    8   69 1    
    18    8   70 1    
    19    9   10 ar   
    20    9   14 ar   
    21   10   11 ar   
    22   10   71 1    
    23   11   12 ar   
    24   11   61 1    
    25   12   13 ar   
    26   12   72 1    
    27   13   14 ar   
    28   13   15 1    
    29   14   73 1    
    30   15   16 1    
    31   15   74 1    
    32   15   75 1    
    33   16   17 1    
    34   17   18 1    
    35   17   76 1    
    36   17   77 1    
    37   18   19 1    
    38   18   27 1    
    39   18   78 1    
    40   19   20 am   BACKBONE|DICT|INTERRES
    41   19   79 1    
    42   20   21 2    
    43   20   22 1    
    44   22   23 1    
    45   22   24 1    
    46   22   80 1    
    47   23   81 1    
    48   23   82 1    
    49   23   83 1    
    50   24   25 am   BACKBONE|DICT|INTERRES
    51   24   84 1    
    52   25   26 2    
    53   27   28 2    
    54   27   29 am   BACKBONE|DICT|INTERRES
    55   29   30 1    
    56   29   85 1    
    57   30   31 1    
    58   30   32 1    
    59   30   86 1    
    60   31   87 1    
    61   31   88 1    
    62   31   89 1    
    63   32   33 2    
    64   32   34 am   BACKBONE|DICT|INTERRES
    65   34   35 1    
    66   34   90 1    
    67   35   36 1    
    68   35   37 1    
    69   35   91 1    
    70   36   92 1    
    71   36   93 1    
    72   36   94 1    
    73   37   38 2    
    74   37   39 am   BACKBONE|DICT|INTERRES
    75   39   40 1    
    76   39   95 1    
    77   40   41 1    
    78   40   42 1    
    79   40   96 1    
    80   41   97 1    
    81   41   98 1    
    82   41   99 1    
    83   42   43 2    
    84   42   44 am   BACKBONE|DICT|INTERRES
    85   44   45 1    
    86   44  100 1    
    87   45   46 1    
    88   45   47 1    
    89   45  101 1    
    90   46  102 1    
    91   46  103 1    
    92   46  104 1    
    93   47   48 2    
    94   47   49 am   BACKBONE|DICT|INTERRES
    95   49   50 1    
    96   49  105 1    
    97   50   51 1    
    98   50   52 1    
    99   50  106 1    
   100   51  107 1    
   101   51  108 1    
   102   51  109 1    
   103   52   53 2    
   104   52   54 am   BACKBONE|DICT|INTERRES
   105   54   55 1    
   106   54  110 1    
   107   55   56 1    
   108   55   59 1    
   109   55  111 1    
   110   56   57 am   BACKBONE|DICT|INTERRES
   111   56   58 2    
   112   57  112 1    
   113   57  113 1    
   114   59   60 1    
   115   59  114 1    
   116   59  115 1    
   117   60   61 1    
   118   61  116 1    
   119   61  117 1    
@<TRIPOS>SUBSTRUCTURE
     1 UNK         1 GROUP             0       ****    0 ROOT    
