@<TRIPOS>MOLECULE
3R8
117   119    1
SMALL
USER_CHARGES


@<TRIPOS>ATOM
      1 CA         18.3731  -28.6801  -42.0917 C.3       0 UNK        -0.2013 
      2 C          17.4927  -27.4642  -42.3232 C.2       0 UNK         0.4866 
      3 O          17.6226  -26.4703  -41.6091 O.2       0 UNK        -0.5176 
      4 N          16.5917  -27.5370  -43.3114 N.am      1 UNK        -0.4884 
      5 CA         15.6543  -26.4624  -43.6638 C.3       1 UNK         0.0853 
      6 C6         14.4868  -26.9974  -44.5308 C.3       10 UNK        -0.0849 
      7 S7         14.9727  -27.6146  -46.1858 S.3       10 UNK        -0.2776 
      8 C8         14.9674  -29.4283  -45.9799 C.3       10 UNK         0.0316 
      9 C9         16.3252  -30.0403  -45.6300 C.ar      10 UNK        -0.0863 
     10 C10        16.3697  -31.1639  -44.7975 C.ar      10 UNK        -0.1009 
     11 C11        17.5694  -31.8451  -44.5680 C.ar      10 UNK        -0.0712 
     12 C12        18.7412  -31.3789  -45.1753 C.ar      10 UNK        -0.0894 
     13 C13        18.7252  -30.2418  -45.9878 C.ar      10 UNK        -0.0745 
     14 C14        17.5134  -29.5790  -46.2136 C.ar      10 UNK        -0.0972 
     15 C15        20.0008  -29.7789  -46.6875 C.3       10 UNK         0.0209 
     16 S16        21.4145  -29.5466  -45.5543 S.3       10 UNK        -0.2568 
     17 C17        20.8971  -28.0542  -44.6532 C.3       10 UNK        -0.0983 
     18 CA         21.3917  -26.7470  -45.3348 C.3       3 UNK         0.0876 
     19 N          20.3568  -25.7183  -45.2796 N.am      3 UNK        -0.4424 
     20 C          19.4586  -25.4909  -46.2405 C.2       2 UNK         0.4918 
     21 O          19.4759  -26.0289  -47.3487 O.2       2 UNK        -0.4875 
     22 CA         18.2645  -24.6287  -45.8279 C.3       2 UNK         0.0481 
     23 CB         17.5198  -24.0142  -47.0303 C.3       2 UNK        -0.1831 
     24 N          17.4005  -25.5418  -45.0938 N.am      2 UNK        -0.4498 
     25 C          16.3569  -25.2486  -44.3138 C.2       1 UNK         0.5027 
     26 O          15.9545  -24.1057  -44.0915 O.2       1 UNK        -0.4969 
     27 C          22.7004  -26.2120  -44.7273 C.2       3 UNK         0.5005 
     28 O          22.7436  -25.0750  -44.2463 O.2       3 UNK        -0.5279 
     29 N          23.7485  -27.0436  -44.7758 N.am      4 UNK        -0.4463 
     30 CA         25.0775  -26.7614  -44.2303 C.3       4 UNK         0.0283 
     31 CB         26.0456  -27.8654  -44.6874 C.3       4 UNK        -0.1875 
     32 C          25.0790  -26.6576  -42.6952 C.2       4 UNK         0.4949 
     33 O          24.2416  -27.2714  -42.0289 O.2       4 UNK        -0.5039 
     34 N          26.0519  -25.9091  -42.1612 N.am      5 UNK        -0.4663 
     35 CA         26.3037  -25.7900  -40.7244 C.3       5 UNK         0.0242 
     36 CB         27.3314  -24.6737  -40.4771 C.3       5 UNK        -0.1982 
     37 C          26.7979  -27.1233  -40.1383 C.2       5 UNK         0.5017 
     38 O          27.6622  -27.7648  -40.7404 O.2       5 UNK        -0.5012 
     39 N          26.2401  -27.5015  -38.9796 N.am      6 UNK        -0.4439 
     40 CA         26.5040  -28.7409  -38.2350 C.3       6 UNK         0.0297 
     41 CB         27.9535  -28.7681  -37.7023 C.3       6 UNK        -0.2006 
     42 C          26.1231  -30.0309  -38.9957 C.2       6 UNK         0.4892 
     43 O          26.6965  -31.0878  -38.7230 O.2       6 UNK        -0.5089 
     44 N          25.1525  -29.9369  -39.9172 N.am      7 UNK        -0.4243 
     45 CA         24.5578  -31.0791  -40.6151 C.3       7 UNK         0.0196 
     46 CB         23.7158  -30.5683  -41.7971 C.3       7 UNK        -0.2007 
     47 C          23.6887  -31.9238  -39.6687 C.2       7 UNK         0.5020 
     48 O          23.1177  -31.3890  -38.7147 O.2       7 UNK        -0.5147 
     49 N          23.5544  -33.2200  -39.9822 N.am      8 UNK        -0.4734 
     50 CA         22.7628  -34.1956  -39.2164 C.3       8 UNK         0.0238 
     51 CB         22.9765  -35.5976  -39.8104 C.3       8 UNK        -0.1912 
     52 C          21.2585  -33.8712  -39.1339 C.2       8 UNK         0.5038 
     53 O          20.5972  -34.3097  -38.1918 O.2       8 UNK        -0.5046 
     54 N          20.7590  -33.0993  -40.1059 N.am      9 UNK        -0.4200 
     55 CA         19.4031  -32.5350  -40.1351 C.3       9 UNK         0.0839 
     56 C          19.1632  -31.3892  -39.1074 C.2       9 UNK         0.5513 
     57 N          20.1832  -30.8358  -38.4605 N.am      9 UNK        -0.7519 
     58 O          18.0201  -30.9953  -38.8929 O.2       9 UNK        -0.4960 
     59 C59        19.0201  -32.0751  -41.5644 C.3       10 UNK        -0.0876 
     60 S60        19.0786  -33.4334  -42.7785 S.3       10 UNK        -0.2414 
     61 C61        17.5527  -33.1255  -43.7314 C.3       10 UNK         0.0169 
     62 H62        18.3144  -29.3858  -42.9199 H         1 UNK         0.0903 
     63 H63        19.4131  -28.3790  -41.9731 H         1 UNK         0.0903 
     64 H64        18.0625  -29.1883  -41.1797 H         1 UNK         0.0903 
     65 H65        16.5249  -28.3765  -43.8719 H         1 UNK         0.3096 
     66 H66        15.2200  -26.0959  -42.7304 H         1 UNK         0.1121 
     67 H67        13.9555  -27.7805  -43.9882 H         1 UNK         0.0849 
     68 H68        13.7493  -26.2061  -44.6783 H         1 UNK         0.0849 
     69 H69        14.2105  -29.7119  -45.2472 H         1 UNK         0.0865 
     70 H70        14.6440  -29.8690  -46.9238 H         1 UNK         0.0865 
     71 H71        15.4541  -31.5439  -44.3642 H         1 UNK         0.1346 
     72 H72        19.6719  -31.9107  -45.0353 H         1 UNK         0.1412 
     73 H73        17.4898  -28.7301  -46.8837 H         1 UNK         0.1426 
     74 H74        19.8305  -28.8494  -47.2332 H         1 UNK         0.0716 
     75 H75        20.2745  -30.5255  -47.4339 H         1 UNK         0.0716 
     76 H76        21.2435  -28.1307  -43.6203 H         1 UNK         0.0695 
     77 H77        19.8086  -28.0712  -44.5892 H         1 UNK         0.0695 
     78 H78        21.6179  -26.9437  -46.3856 H         1 UNK         0.0983 
     79 H79        20.3187  -25.1916  -44.4174 H         1 UNK         0.3095 
     80 H80        18.6072  -23.8318  -45.1650 H         1 UNK         0.0454 
     81 H81        18.1922  -23.4020  -47.6322 H         1 UNK         0.0851 
     82 H82        16.7011  -23.3721  -46.7063 H         1 UNK         0.0851 
     83 H83        17.1019  -24.7819  -47.6829 H         1 UNK         0.0851 
     84 H84        17.6333  -26.5200  -45.1967 H         1 UNK         0.2976 
     85 H85        23.6001  -27.9729  -45.1444 H         1 UNK         0.3116 
     86 H86        25.4133  -25.8074  -44.6424 H         1 UNK         0.0646 
     87 H87        25.7445  -28.8456  -44.3155 H         1 UNK         0.0847 
     88 H88        26.1027  -27.9208  -45.7747 H         1 UNK         0.0847 
     89 H89        27.0563  -27.6783  -44.3216 H         1 UNK         0.0847 
     90 H90        26.7231  -25.4704  -42.7752 H         1 UNK         0.3040 
     91 H91        25.3647  -25.5104  -40.2409 H         1 UNK         0.1015 
     92 H92        28.2883  -24.8924  -40.9532 H         1 UNK         0.0786 
     93 H93        26.9773  -23.7154  -40.8577 H         1 UNK         0.0786 
     94 H94        27.5206  -24.5475  -39.4101 H         1 UNK         0.0786 
     95 H95        25.5367  -26.8988  -38.5735 H         1 UNK         0.3172 
     96 H96        25.8430  -28.7102  -37.3676 H         1 UNK         0.0595 
     97 H97        28.6799  -28.8774  -38.5080 H         1 UNK         0.0839 
     98 H98        28.1037  -29.6032  -37.0169 H         1 UNK         0.0839 
     99 H99        28.1936  -27.8568  -37.1548 H         1 UNK         0.0839 
    100 H100       24.7296  -29.0348  -40.0854 H         1 UNK         0.2998 
    101 H101       25.3663  -31.7034  -41.0017 H         1 UNK         0.0822 
    102 H102       23.2651  -31.3934  -42.3502 H         1 UNK         0.0787 
    103 H103       24.3267  -30.0061  -42.5033 H         1 UNK         0.0787 
    104 H104       22.9063  -29.9161  -41.4657 H         1 UNK         0.0787 
    105 H105       24.0450  -33.5758  -40.7910 H         1 UNK         0.3055 
    106 H106       23.1425  -34.1944  -38.1921 H         1 UNK         0.1106 
    107 H107       24.0276  -35.8857  -39.7840 H         1 UNK         0.0828 
    108 H108       22.4238  -36.3496  -39.2452 H         1 UNK         0.0828 
    109 H109       22.6365  -35.6542  -40.8453 H         1 UNK         0.0828 
    110 H110       21.3801  -32.8029  -40.8426 H         1 UNK         0.2931 
    111 H111       18.7154  -33.3353  -39.8543 H         1 UNK         0.0412 
    112 H112       19.9991  -30.0989  -37.7986 H         1 UNK         0.3472 
    113 H113       21.1382  -31.1421  -38.6143 H         1 UNK         0.3472 
    114 H114       18.0143  -31.6511  -41.5657 H         1 UNK         0.0970 
    115 H115       19.6891  -31.2832  -41.9056 H         1 UNK         0.0970 
    116 H116       17.3944  -33.9690  -44.4044 H         1 UNK         0.0612 
    117 H117       16.7077  -33.1201  -43.0411 H         1 UNK         0.0612 
@<TRIPOS>BOND
     1    1    2 1    
     2    1   62 1    
     3    1   63 1    
     4    1   64 1    
     5    2    3 2    
     6    2    4 am   BACKBONE|DICT|INTERRES
     7    4    5 1    
     8    4   65 1    
     9    5    6 1    
    10    5   25 1    
    11    5   66 1    
    12    6    7 1    
    13    6   67 1    
    14    6   68 1    
    15    7    8 1    
    16    8    9 1    
    17    8   69 1    
    18    8   70 1    
    19    9   10 ar   
    20    9   14 ar   
    21   10   11 ar   
    22   10   71 1    
    23   11   12 ar   
    24   11   61 1    
    25   12   13 ar   
    26   12   72 1    
    27   13   14 ar   
    28   13   15 1    
    29   14   73 1    
    30   15   16 1    
    31   15   74 1    
    32   15   75 1    
    33   16   17 1    
    34   17   18 1    
    35   17   76 1    
    36   17   77 1    
    37   18   19 1    
    38   18   27 1    
    39   18   78 1    
    40   19   20 am   BACKBONE|DICT|INTERRES
    41   19   79 1    
    42   20   21 2    
    43   20   22 1    
    44   22   23 1    
    45   22   24 1    
    46   22   80 1    
    47   23   81 1    
    48   23   82 1    
    49   23   83 1    
    50   24   25 am   BACKBONE|DICT|INTERRES
    51   24   84 1    
    52   25   26 2    
    53   27   28 2    
    54   27   29 am   BACKBONE|DICT|INTERRES
    55   29   30 1    
    56   29   85 1    
    57   30   31 1    
    58   30   32 1    
    59   30   86 1    
    60   31   87 1    
    61   31   88 1    
    62   31   89 1    
    63   32   33 2    
    64   32   34 am   BACKBONE|DICT|INTERRES
    65   34   35 1    
    66   34   90 1    
    67   35   36 1    
    68   35   37 1    
    69   35   91 1    
    70   36   92 1    
    71   36   93 1    
    72   36   94 1    
    73   37   38 2    
    74   37   39 am   BACKBONE|DICT|INTERRES
    75   39   40 1    
    76   39   95 1    
    77   40   41 1    
    78   40   42 1    
    79   40   96 1    
    80   41   97 1    
    81   41   98 1    
    82   41   99 1    
    83   42   43 2    
    84   42   44 am   BACKBONE|DICT|INTERRES
    85   44   45 1    
    86   44  100 1    
    87   45   46 1    
    88   45   47 1    
    89   45  101 1    
    90   46  102 1    
    91   46  103 1    
    92   46  104 1    
    93   47   48 2    
    94   47   49 am   BACKBONE|DICT|INTERRES
    95   49   50 1    
    96   49  105 1    
    97   50   51 1    
    98   50   52 1    
    99   50  106 1    
   100   51  107 1    
   101   51  108 1    
   102   51  109 1    
   103   52   53 2    
   104   52   54 am   BACKBONE|DICT|INTERRES
   105   54   55 1    
   106   54  110 1    
   107   55   56 1    
   108   55   59 1    
   109   55  111 1    
   110   56   57 am   BACKBONE|DICT|INTERRES
   111   56   58 2    
   112   57  112 1    
   113   57  113 1    
   114   59   60 1    
   115   59  114 1    
   116   59  115 1    
   117   60   61 1    
   118   61  116 1    
   119   61  117 1    
@<TRIPOS>SUBSTRUCTURE
     1 UNK         1 GROUP             0       ****    0 ROOT    
