@<TRIPOS>MOLECULE
3R8
117   119    1
SMALL
USER_CHARGES


@<TRIPOS>ATOM
      1 CA         16.7742  -22.5993  -48.9105 C.3       0 UNK        -0.2013 
      2 C          17.9876  -23.1736  -48.1943 C.2       0 UNK         0.4866 
      3 O          18.9968  -22.4826  -48.0493 O.2       0 UNK        -0.5176 
      4 N          17.9016  -24.4346  -47.7523 N.am      1 UNK        -0.4884 
      5 CA         18.9439  -25.1190  -46.9808 C.3       1 UNK         0.0853 
      6 C6         18.7302  -26.6543  -46.9984 C.3       10 UNK        -0.0849 
      7 S7         20.2737  -27.5809  -46.7026 S.3       10 UNK        -0.2776 
      8 C8         19.6602  -29.2964  -46.6825 C.3       10 UNK         0.0316 
      9 C9         19.1954  -29.7127  -45.2943 C.ar      10 UNK        -0.0863 
     10 C10        20.1049  -30.2811  -44.3974 C.ar      10 UNK        -0.1009 
     11 C11        19.7027  -30.6608  -43.1139 C.ar      10 UNK        -0.0712 
     12 C12        18.3629  -30.4930  -42.7448 C.ar      10 UNK        -0.0894 
     13 C13        17.4470  -29.9023  -43.6216 C.ar      10 UNK        -0.0745 
     14 C14        17.8665  -29.5269  -44.9014 C.ar      10 UNK        -0.0972 
     15 C15        16.0170  -29.6315  -43.1699 C.3       10 UNK         0.0209 
     16 S16        15.9469  -28.6668  -41.6198 S.3       10 UNK        -0.2568 
     17 C17        16.6885  -27.0670  -42.1037 C.3       10 UNK        -0.0983 
     18 CA         18.2303  -27.0017  -41.9495 C.3       3 UNK         0.0876 
     19 N          18.7741  -25.7881  -42.5600 N.am      3 UNK        -0.4424 
     20 C          20.0756  -25.4979  -42.6785 C.2       2 UNK         0.4918 
     21 O          20.9782  -26.1942  -42.2129 O.2       2 UNK        -0.4875 
     22 CA         20.4177  -24.2600  -43.5257 C.3       2 UNK         0.0481 
     23 CB         21.8752  -23.8014  -43.3344 C.3       2 UNK        -0.1831 
     24 N          20.1900  -24.5557  -44.9412 N.am      2 UNK        -0.4498 
     25 C          18.9896  -24.5831  -45.5349 C.2       1 UNK         0.5027 
     26 O          17.9411  -24.2598  -44.9672 O.2       1 UNK        -0.4969 
     27 C          18.7162  -27.1968  -40.4962 C.2       3 UNK         0.5005 
     28 O          18.7593  -26.2347  -39.7260 O.2       3 UNK        -0.5279 
     29 N          19.1264  -28.4347  -40.1855 N.am      4 UNK        -0.4463 
     30 CA         19.7501  -28.9305  -38.9505 C.3       4 UNK         0.0283 
     31 CB         18.8815  -28.6466  -37.7098 C.3       4 UNK        -0.1875 
     32 C          21.2049  -28.4702  -38.7349 C.2       4 UNK         0.4949 
     33 O          21.9778  -29.2232  -38.1432 O.2       4 UNK        -0.5039 
     34 N          21.5657  -27.2715  -39.2106 N.am      5 UNK        -0.4663 
     35 CA         22.9241  -26.7250  -39.1444 C.3       5 UNK         0.0242 
     36 CB         22.8614  -25.1947  -39.2757 C.3       5 UNK        -0.1982 
     37 C          23.8562  -27.3237  -40.2122 C.2       5 UNK         0.5017 
     38 O          25.0424  -27.5145  -39.9393 O.2       5 UNK        -0.5012 
     39 N          23.3072  -27.5879  -41.4049 N.am      6 UNK        -0.4439 
     40 CA         23.9859  -28.1870  -42.5551 C.3       6 UNK         0.0297 
     41 CB         23.0559  -28.0849  -43.7767 C.3       6 UNK        -0.2006 
     42 C          24.4305  -29.6443  -42.3241 C.2       6 UNK         0.4892 
     43 O          23.9676  -30.3082  -41.3926 O.2       6 UNK        -0.5089 
     44 N          25.3235  -30.1105  -43.2079 N.am      7 UNK        -0.4243 
     45 CA         25.8891  -31.4617  -43.2276 C.3       7 UNK         0.0196 
     46 CB         26.9341  -31.5438  -44.3531 C.3       7 UNK        -0.2007 
     47 C          24.8319  -32.5683  -43.3977 C.2       7 UNK         0.5020 
     48 O          23.7613  -32.3227  -43.9542 O.2       7 UNK        -0.5147 
     49 N          25.1817  -33.7689  -42.9166 N.am      8 UNK        -0.4734 
     50 CA         24.3891  -35.0087  -42.8495 C.3       8 UNK         0.0238 
     51 CB         23.7226  -35.3672  -44.1944 C.3       8 UNK        -0.1912 
     52 C          23.3854  -35.0594  -41.6822 C.2       8 UNK         0.5038 
     53 O          22.9585  -36.1589  -41.3264 O.2       8 UNK        -0.5046 
     54 N          23.0638  -33.9100  -41.0737 N.am      9 UNK        -0.4200 
     55 CA         22.2876  -33.8186  -39.8247 C.3       9 UNK         0.0839 
     56 C          23.1442  -34.0128  -38.5389 C.2       9 UNK         0.5513 
     57 N          24.4669  -34.1039  -38.6195 N.am      9 UNK        -0.7519 
     58 O          22.5944  -34.0996  -37.4440 O.2       9 UNK        -0.4960 
     59 C59        21.4596  -32.5110  -39.7536 C.3       10 UNK        -0.0876 
     60 S60        20.1336  -32.4669  -41.0049 S.3       10 UNK        -0.2414 
     61 C61        20.7470  -31.1676  -42.1228 C.3       10 UNK         0.0169 
     62 H62        16.4043  -21.7237  -48.3776 H         1 UNK         0.0903 
     63 H63        17.0443  -22.2944  -49.9212 H         1 UNK         0.0903 
     64 H64        15.9613  -23.3218  -48.9805 H         1 UNK         0.0903 
     65 H65        17.0347  -24.9406  -47.8667 H         1 UNK         0.3096 
     66 H66        19.8987  -24.8931  -47.4623 H         1 UNK         0.1121 
     67 H67        18.3600  -26.9671  -47.9764 H         1 UNK         0.0849 
     68 H68        17.9679  -26.9565  -46.2782 H         1 UNK         0.0849 
     69 H69        18.8558  -29.4179  -47.4097 H         1 UNK         0.0865 
     70 H70        20.4634  -29.9571  -47.0127 H         1 UNK         0.0865 
     71 H71        21.1376  -30.4090  -44.6940 H         1 UNK         0.1346 
     72 H72        18.0311  -30.7809  -41.7567 H         1 UNK         0.1412 
     73 H73        17.1619  -29.0783  -45.5879 H         1 UNK         0.1426 
     74 H74        15.5111  -30.5853  -43.0144 H         1 UNK         0.0716 
     75 H75        15.4534  -29.1046  -43.9415 H         1 UNK         0.0716 
     76 H76        16.2192  -26.2819  -41.5080 H         1 UNK         0.0695 
     77 H77        16.4086  -26.8640  -43.1389 H         1 UNK         0.0695 
     78 H78        18.6637  -27.8035  -42.5451 H         1 UNK         0.0983 
     79 H79        18.1133  -25.1740  -43.0198 H         1 UNK         0.3095 
     80 H80        19.7648  -23.4418  -43.2145 H         1 UNK         0.0454 
     81 H81        22.5890  -24.5718  -43.6283 H         1 UNK         0.0851 
     82 H82        22.0715  -23.5579  -42.2899 H         1 UNK         0.0851 
     83 H83        22.0889  -22.9067  -43.9190 H         1 UNK         0.0851 
     84 H84        20.9896  -24.8919  -45.4594 H         1 UNK         0.2976 
     85 H85        19.0549  -29.1283  -40.9168 H         1 UNK         0.3116 
     86 H86        19.7899  -30.0140  -39.0696 H         1 UNK         0.0646 
     87 H87        18.8320  -27.5825  -37.4783 H         1 UNK         0.0847 
     88 H88        19.2895  -29.1467  -36.8305 H         1 UNK         0.0847 
     89 H89        17.8629  -29.0098  -37.8460 H         1 UNK         0.0847 
     90 H90        20.8571  -26.7045  -39.6622 H         1 UNK         0.3040 
     91 H91        23.3486  -26.9644  -38.1666 H         1 UNK         0.1015 
     92 H92        22.4261  -24.8886  -40.2271 H         1 UNK         0.0786 
     93 H93        23.8587  -24.7566  -39.2165 H         1 UNK         0.0786 
     94 H94        22.2653  -24.7527  -38.4771 H         1 UNK         0.0786 
     95 H95        22.3409  -27.3085  -41.5522 H         1 UNK         0.3172 
     96 H96        24.8825  -27.5962  -42.7530 H         1 UNK         0.0595 
     97 H97        23.4657  -28.5953  -44.6491 H         1 UNK         0.0839 
     98 H98        22.8925  -27.0462  -44.0628 H         1 UNK         0.0839 
     99 H99        22.0809  -28.5230  -43.5685 H         1 UNK         0.0839 
    100 H100       25.6175  -29.4980  -43.9543 H         1 UNK         0.2998 
    101 H101       26.3914  -31.6134  -42.2698 H         1 UNK         0.0822 
    102 H102       27.4099  -32.5251  -44.3798 H         1 UNK         0.0787 
    103 H103       26.4837  -31.3750  -45.3324 H         1 UNK         0.0787 
    104 H104       27.7264  -30.8076  -44.2157 H         1 UNK         0.0787 
    105 H105       26.0995  -33.8433  -42.4975 H         1 UNK         0.3055 
    106 H106       25.1151  -35.7964  -42.6396 H         1 UNK         0.1106 
    107 H107       23.3138  -36.3780  -44.1645 H         1 UNK         0.0828 
    108 H108       22.8956  -34.6984  -44.4339 H         1 UNK         0.0828 
    109 H109       24.4369  -35.3310  -45.0167 H         1 UNK         0.0828 
    110 H110       23.4382  -33.0444  -41.4353 H         1 UNK         0.2931 
    111 H111       21.5720  -34.6432  -39.8120 H         1 UNK         0.0412 
    112 H112       24.9335  -34.0368  -39.5088 H         1 UNK         0.3472 
    113 H113       25.0037  -34.2364  -37.7764 H         1 UNK         0.3472 
    114 H114       22.1093  -31.6386  -39.8472 H         1 UNK         0.0970 
    115 H115       20.9738  -32.4139  -38.7807 H         1 UNK         0.0970 
    116 H116       21.0974  -30.3174  -41.5364 H         1 UNK         0.0612 
    117 H117       21.6157  -31.5585  -42.6521 H         1 UNK         0.0612 
@<TRIPOS>BOND
     1    1    2 1    
     2    1   62 1    
     3    1   63 1    
     4    1   64 1    
     5    2    3 2    
     6    2    4 am   BACKBONE|DICT|INTERRES
     7    4    5 1    
     8    4   65 1    
     9    5    6 1    
    10    5   25 1    
    11    5   66 1    
    12    6    7 1    
    13    6   67 1    
    14    6   68 1    
    15    7    8 1    
    16    8    9 1    
    17    8   69 1    
    18    8   70 1    
    19    9   10 ar   
    20    9   14 ar   
    21   10   11 ar   
    22   10   71 1    
    23   11   12 ar   
    24   11   61 1    
    25   12   13 ar   
    26   12   72 1    
    27   13   14 ar   
    28   13   15 1    
    29   14   73 1    
    30   15   16 1    
    31   15   74 1    
    32   15   75 1    
    33   16   17 1    
    34   17   18 1    
    35   17   76 1    
    36   17   77 1    
    37   18   19 1    
    38   18   27 1    
    39   18   78 1    
    40   19   20 am   BACKBONE|DICT|INTERRES
    41   19   79 1    
    42   20   21 2    
    43   20   22 1    
    44   22   23 1    
    45   22   24 1    
    46   22   80 1    
    47   23   81 1    
    48   23   82 1    
    49   23   83 1    
    50   24   25 am   BACKBONE|DICT|INTERRES
    51   24   84 1    
    52   25   26 2    
    53   27   28 2    
    54   27   29 am   BACKBONE|DICT|INTERRES
    55   29   30 1    
    56   29   85 1    
    57   30   31 1    
    58   30   32 1    
    59   30   86 1    
    60   31   87 1    
    61   31   88 1    
    62   31   89 1    
    63   32   33 2    
    64   32   34 am   BACKBONE|DICT|INTERRES
    65   34   35 1    
    66   34   90 1    
    67   35   36 1    
    68   35   37 1    
    69   35   91 1    
    70   36   92 1    
    71   36   93 1    
    72   36   94 1    
    73   37   38 2    
    74   37   39 am   BACKBONE|DICT|INTERRES
    75   39   40 1    
    76   39   95 1    
    77   40   41 1    
    78   40   42 1    
    79   40   96 1    
    80   41   97 1    
    81   41   98 1    
    82   41   99 1    
    83   42   43 2    
    84   42   44 am   BACKBONE|DICT|INTERRES
    85   44   45 1    
    86   44  100 1    
    87   45   46 1    
    88   45   47 1    
    89   45  101 1    
    90   46  102 1    
    91   46  103 1    
    92   46  104 1    
    93   47   48 2    
    94   47   49 am   BACKBONE|DICT|INTERRES
    95   49   50 1    
    96   49  105 1    
    97   50   51 1    
    98   50   52 1    
    99   50  106 1    
   100   51  107 1    
   101   51  108 1    
   102   51  109 1    
   103   52   53 2    
   104   52   54 am   BACKBONE|DICT|INTERRES
   105   54   55 1    
   106   54  110 1    
   107   55   56 1    
   108   55   59 1    
   109   55  111 1    
   110   56   57 am   BACKBONE|DICT|INTERRES
   111   56   58 2    
   112   57  112 1    
   113   57  113 1    
   114   59   60 1    
   115   59  114 1    
   116   59  115 1    
   117   60   61 1    
   118   61  116 1    
   119   61  117 1    
@<TRIPOS>SUBSTRUCTURE
     1 UNK         1 GROUP             0       ****    0 ROOT    
