@<TRIPOS>MOLECULE
3R8
117   119    1
SMALL
USER_CHARGES


@<TRIPOS>ATOM
      1 CA         19.1951  -22.5351  -41.3293 C.3       0 UNK        -0.2013 
      2 C          18.8674  -23.1009  -42.7031 C.2       0 UNK         0.4866 
      3 O          18.8752  -22.3615  -43.6879 O.2       0 UNK        -0.5176 
      4 N          18.5665  -24.4037  -42.7723 N.am      1 UNK        -0.4884 
      5 CA         18.2514  -25.1398  -44.0019 C.3       1 UNK         0.0853 
      6 C6         17.7510  -26.5810  -43.7173 C.3       10 UNK        -0.0849 
      7 S7         16.4299  -26.6787  -42.4583 S.3       10 UNK        -0.2776 
      8 C8         15.3861  -28.0394  -43.0791 C.3       10 UNK         0.0316 
      9 C9         16.1857  -29.2928  -43.4152 C.ar      10 UNK        -0.0863 
     10 C10        16.7931  -30.0486  -42.4047 C.ar      10 UNK        -0.1009 
     11 C11        17.5304  -31.1955  -42.7220 C.ar      10 UNK        -0.0712 
     12 C12        17.6345  -31.5937  -44.0574 C.ar      10 UNK        -0.0894 
     13 C13        17.0708  -30.8235  -45.0764 C.ar      10 UNK        -0.0745 
     14 C14        16.3298  -29.6862  -44.7494 C.ar      10 UNK        -0.0972 
     15 C15        17.3272  -31.1858  -46.5317 C.3       10 UNK         0.0209 
     16 S16        18.5001  -30.0311  -47.3234 S.3       10 UNK        -0.2568 
     17 C17        19.8922  -30.0016  -46.1357 C.3       10 UNK        -0.0983 
     18 CA         20.9898  -28.9671  -46.4938 C.3       3 UNK         0.0876 
     19 N          20.4135  -27.6378  -46.7175 N.am      3 UNK        -0.4424 
     20 C          21.0054  -26.6067  -47.3326 C.2       2 UNK         0.4918 
     21 O          22.1127  -26.6706  -47.8657 O.2       2 UNK        -0.4875 
     22 CA         20.2467  -25.2637  -47.3150 C.3       2 UNK         0.0481 
     23 CB         19.5828  -25.0100  -48.6777 C.3       2 UNK        -0.1831 
     24 N          19.2326  -25.1510  -46.2548 N.am      2 UNK        -0.4498 
     25 C          19.4764  -25.2102  -44.9364 C.2       1 UNK         0.5027 
     26 O          20.5981  -25.3995  -44.4544 O.2       1 UNK        -0.4969 
     27 C          22.0983  -28.9752  -45.4098 C.2       3 UNK         0.5005 
     28 O          22.7195  -30.0213  -45.2223 O.2       3 UNK        -0.5279 
     29 N          22.3123  -27.8390  -44.7215 N.am      4 UNK        -0.4463 
     30 CA         23.2114  -27.5981  -43.5877 C.3       4 UNK         0.0283 
     31 CB         24.6505  -28.0973  -43.8386 C.3       4 UNK        -0.1875 
     32 C          22.5946  -28.1295  -42.2861 C.2       4 UNK         0.4949 
     33 O          22.9769  -29.1924  -41.7972 O.2       4 UNK        -0.5039 
     34 N          21.6389  -27.3565  -41.7500 N.am      5 UNK        -0.4663 
     35 CA         20.8668  -27.6557  -40.5348 C.3       5 UNK         0.0242 
     36 CB         19.7997  -26.5699  -40.3350 C.3       5 UNK        -0.1982 
     37 C          21.6842  -27.8223  -39.2406 C.2       5 UNK         0.5017 
     38 O          21.1690  -28.3964  -38.2795 O.2       5 UNK        -0.5012 
     39 N          22.9275  -27.3238  -39.2199 N.am      6 UNK        -0.4439 
     40 CA         23.8787  -27.4351  -38.1114 C.3       6 UNK         0.0297 
     41 CB         24.9836  -26.3786  -38.2989 C.3       6 UNK        -0.2006 
     42 C          24.4441  -28.8644  -37.9818 C.2       6 UNK         0.4892 
     43 O          25.6357  -29.0789  -38.2087 O.2       6 UNK        -0.5089 
     44 N          23.5607  -29.8203  -37.6613 N.am      7 UNK        -0.4243 
     45 CA         23.7604  -31.2646  -37.4597 C.3       7 UNK         0.0196 
     46 CB         24.7384  -31.5321  -36.2993 C.3       7 UNK        -0.2007 
     47 C          24.1680  -32.0654  -38.7121 C.2       7 UNK         0.5020 
     48 O          23.8292  -33.2464  -38.7967 O.2       7 UNK        -0.5147 
     49 N          24.8734  -31.4323  -39.6571 N.am      8 UNK        -0.4734 
     50 CA         25.4203  -32.0248  -40.8815 C.3       8 UNK         0.0238 
     51 CB         26.2212  -30.9554  -41.6399 C.3       8 UNK        -0.1912 
     52 C          24.3816  -32.6880  -41.8033 C.2       8 UNK         0.5038 
     53 O          24.7263  -33.6583  -42.4802 O.2       8 UNK        -0.5046 
     54 N          23.1403  -32.1843  -41.7988 N.am      9 UNK        -0.4200 
     55 CA         22.0013  -32.7834  -42.5078 C.3       9 UNK         0.0839 
     56 C          21.4999  -34.1456  -41.9395 C.2       9 UNK         0.5513 
     57 N          21.9378  -34.5875  -40.7653 N.am      9 UNK        -0.7519 
     58 O          20.7032  -34.8197  -42.5874 O.2       9 UNK        -0.4960 
     59 C59        20.8528  -31.7652  -42.7254 C.3       10 UNK        -0.0876 
     60 S60        19.8819  -31.3401  -41.2327 S.3       10 UNK        -0.2414 
     61 C61        18.2268  -32.0004  -41.6307 C.3       10 UNK         0.0169 
     62 H62        20.2338  -22.2074  -41.2973 H         1 UNK         0.0903 
     63 H63        18.5598  -21.6759  -41.1158 H         1 UNK         0.0903 
     64 H64        19.0450  -23.2694  -40.5381 H         1 UNK         0.0903 
     65 H65        18.5445  -24.9541  -41.9272 H         1 UNK         0.3096 
     66 H66        17.4561  -24.5900  -44.5105 H         1 UNK         0.1121 
     67 H67        18.5677  -27.2255  -43.3837 H         1 UNK         0.0849 
     68 H68        17.3828  -27.0227  -44.6447 H         1 UNK         0.0849 
     69 H69        14.6371  -28.2832  -42.3244 H         1 UNK         0.0865 
     70 H70        14.8325  -27.6880  -43.9514 H         1 UNK         0.0865 
     71 H71        16.7054  -29.7338  -41.3736 H         1 UNK         0.1346 
     72 H72        18.1915  -32.4840  -44.3126 H         1 UNK         0.1412 
     73 H73        15.8926  -29.0923  -45.5407 H         1 UNK         0.1426 
     74 H74        16.3861  -31.1735  -47.0831 H         1 UNK         0.0716 
     75 H75        17.7193  -32.2006  -46.6152 H         1 UNK         0.0716 
     76 H76        20.3123  -31.0079  -46.0825 H         1 UNK         0.0695 
     77 H77        19.5021  -29.7768  -45.1417 H         1 UNK         0.0695 
     78 H78        21.4625  -29.2839  -47.4261 H         1 UNK         0.0983 
     79 H79        19.4822  -27.5017  -46.3559 H         1 UNK         0.3095 
     80 H80        20.9860  -24.4786  -47.1445 H         1 UNK         0.0454 
     81 H81        20.3163  -25.0547  -49.4841 H         1 UNK         0.0851 
     82 H82        19.1220  -24.0229  -48.7190 H         1 UNK         0.0851 
     83 H83        18.8134  -25.7513  -48.8972 H         1 UNK         0.0851 
     84 H84        18.2821  -25.0065  -46.5660 H         1 UNK         0.2976 
     85 H85        21.7113  -27.0506  -44.9392 H         1 UNK         0.3116 
     86 H86        23.2749  -26.5130  -43.4892 H         1 UNK         0.0646 
     87 H87        25.3113  -27.7865  -43.0288 H         1 UNK         0.0847 
     88 H88        24.7089  -29.1838  -43.8975 H         1 UNK         0.0847 
     89 H89        25.0560  -27.6894  -44.7641 H         1 UNK         0.0847 
     90 H90        21.3888  -26.5086  -42.2414 H         1 UNK         0.3040 
     91 H91        20.3545  -28.6030  -40.7007 H         1 UNK         0.1015 
     92 H92        19.2371  -26.7316  -39.4140 H         1 UNK         0.0786 
     93 H93        19.0783  -26.5867  -41.1465 H         1 UNK         0.0786 
     94 H94        20.2404  -25.5739  -40.2791 H         1 UNK         0.0786 
     95 H95        23.2693  -26.8978  -40.0684 H         1 UNK         0.3172 
     96 H96        23.3557  -27.2063  -37.1803 H         1 UNK         0.0595 
     97 H97        25.5397  -26.5329  -39.2246 H         1 UNK         0.0839 
     98 H98        25.7014  -26.4155  -37.4783 H         1 UNK         0.0839 
     99 H99        24.5703  -25.3700  -38.3191 H         1 UNK         0.0839 
    100 H100       22.5930  -29.5121  -37.6021 H         1 UNK         0.2998 
    101 H101       22.7845  -31.6509  -37.1607 H         1 UNK         0.0822 
    102 H102       24.8037  -32.5995  -36.0841 H         1 UNK         0.0787 
    103 H103       25.7471  -31.1871  -36.5287 H         1 UNK         0.0787 
    104 H104       24.4137  -31.0368  -35.3842 H         1 UNK         0.0787 
    105 H105       25.1429  -30.4745  -39.4542 H         1 UNK         0.3055 
    106 H106       26.1115  -32.8124  -40.5739 H         1 UNK         0.1106 
    107 H107       27.0694  -30.6045  -41.0520 H         1 UNK         0.0828 
    108 H108       26.6164  -31.3476  -42.5781 H         1 UNK         0.0828 
    109 H109       25.6016  -30.0918  -41.8788 H         1 UNK         0.0828 
    110 H110       22.9565  -31.3353  -41.2787 H         1 UNK         0.2931 
    111 H111       22.3737  -33.0195  -43.5069 H         1 UNK         0.0412 
    112 H112       22.5948  -34.0452  -40.2150 H         1 UNK         0.3472 
    113 H113       21.6052  -35.4725  -40.4175 H         1 UNK         0.3472 
    114 H114       21.2549  -30.8384  -43.1331 H         1 UNK         0.0970 
    115 H115       20.1962  -32.1497  -43.5009 H         1 UNK         0.0970 
    116 H116       18.3155  -33.0481  -41.9226 H         1 UNK         0.0612 
    117 H117       17.6194  -31.9875  -40.7247 H         1 UNK         0.0612 
@<TRIPOS>BOND
     1    1    2 1    
     2    1   62 1    
     3    1   63 1    
     4    1   64 1    
     5    2    3 2    
     6    2    4 am   BACKBONE|DICT|INTERRES
     7    4    5 1    
     8    4   65 1    
     9    5    6 1    
    10    5   25 1    
    11    5   66 1    
    12    6    7 1    
    13    6   67 1    
    14    6   68 1    
    15    7    8 1    
    16    8    9 1    
    17    8   69 1    
    18    8   70 1    
    19    9   10 ar   
    20    9   14 ar   
    21   10   11 ar   
    22   10   71 1    
    23   11   12 ar   
    24   11   61 1    
    25   12   13 ar   
    26   12   72 1    
    27   13   14 ar   
    28   13   15 1    
    29   14   73 1    
    30   15   16 1    
    31   15   74 1    
    32   15   75 1    
    33   16   17 1    
    34   17   18 1    
    35   17   76 1    
    36   17   77 1    
    37   18   19 1    
    38   18   27 1    
    39   18   78 1    
    40   19   20 am   BACKBONE|DICT|INTERRES
    41   19   79 1    
    42   20   21 2    
    43   20   22 1    
    44   22   23 1    
    45   22   24 1    
    46   22   80 1    
    47   23   81 1    
    48   23   82 1    
    49   23   83 1    
    50   24   25 am   BACKBONE|DICT|INTERRES
    51   24   84 1    
    52   25   26 2    
    53   27   28 2    
    54   27   29 am   BACKBONE|DICT|INTERRES
    55   29   30 1    
    56   29   85 1    
    57   30   31 1    
    58   30   32 1    
    59   30   86 1    
    60   31   87 1    
    61   31   88 1    
    62   31   89 1    
    63   32   33 2    
    64   32   34 am   BACKBONE|DICT|INTERRES
    65   34   35 1    
    66   34   90 1    
    67   35   36 1    
    68   35   37 1    
    69   35   91 1    
    70   36   92 1    
    71   36   93 1    
    72   36   94 1    
    73   37   38 2    
    74   37   39 am   BACKBONE|DICT|INTERRES
    75   39   40 1    
    76   39   95 1    
    77   40   41 1    
    78   40   42 1    
    79   40   96 1    
    80   41   97 1    
    81   41   98 1    
    82   41   99 1    
    83   42   43 2    
    84   42   44 am   BACKBONE|DICT|INTERRES
    85   44   45 1    
    86   44  100 1    
    87   45   46 1    
    88   45   47 1    
    89   45  101 1    
    90   46  102 1    
    91   46  103 1    
    92   46  104 1    
    93   47   48 2    
    94   47   49 am   BACKBONE|DICT|INTERRES
    95   49   50 1    
    96   49  105 1    
    97   50   51 1    
    98   50   52 1    
    99   50  106 1    
   100   51  107 1    
   101   51  108 1    
   102   51  109 1    
   103   52   53 2    
   104   52   54 am   BACKBONE|DICT|INTERRES
   105   54   55 1    
   106   54  110 1    
   107   55   56 1    
   108   55   59 1    
   109   55  111 1    
   110   56   57 am   BACKBONE|DICT|INTERRES
   111   56   58 2    
   112   57  112 1    
   113   57  113 1    
   114   59   60 1    
   115   59  114 1    
   116   59  115 1    
   117   60   61 1    
   118   61  116 1    
   119   61  117 1    
@<TRIPOS>SUBSTRUCTURE
     1 UNK         1 GROUP             0       ****    0 ROOT    
