@<TRIPOS>MOLECULE
3R8
117   119    1
SMALL
USER_CHARGES


@<TRIPOS>ATOM
      1 CA         23.7863  -24.9385  -45.1365 C.3       0 UNK        -0.2013 
      2 C          22.5461  -24.0579  -45.2744 C.2       0 UNK         0.4866 
      3 O          22.6484  -22.9635  -45.8253 O.2       0 UNK        -0.5176 
      4 N          21.3641  -24.4672  -44.7981 N.am      1 UNK        -0.4884 
      5 CA         21.0617  -25.7213  -44.1043 C.3       1 UNK         0.0853 
      6 C6         21.1610  -27.0041  -44.9874 C.3       10 UNK        -0.0849 
      7 S7         20.2538  -26.9070  -46.5735 S.3       10 UNK        -0.2776 
      8 C8         20.7294  -28.4675  -47.3854 C.3       10 UNK         0.0316 
      9 C9         19.9880  -29.6609  -46.8001 C.ar      10 UNK        -0.0863 
     10 C10        20.6668  -30.6110  -46.0313 C.ar      10 UNK        -0.1009 
     11 C11        19.9814  -31.6980  -45.4804 C.ar      10 UNK        -0.0712 
     12 C12        18.6098  -31.8373  -45.7092 C.ar      10 UNK        -0.0894 
     13 C13        17.9169  -30.8826  -46.4590 C.ar      10 UNK        -0.0745 
     14 C14        18.6156  -29.8103  -47.0228 C.ar      10 UNK        -0.0972 
     15 C15        16.4033  -30.9626  -46.5864 C.3       10 UNK         0.0209 
     16 S16        15.5829  -29.6327  -45.6425 S.3       10 UNK        -0.2568 
     17 C17        16.1150  -29.9656  -43.9224 C.3       10 UNK        -0.0983 
     18 CA         17.4574  -29.2760  -43.5396 C.3       3 UNK         0.0876 
     19 N          17.5184  -27.8524  -43.8782 N.am      3 UNK        -0.4424 
     20 C          16.8430  -26.8420  -43.3143 C.2       2 UNK         0.4918 
     21 O          15.9959  -26.9816  -42.4312 O.2       2 UNK        -0.4875 
     22 CA         17.2218  -25.4305  -43.8225 C.3       2 UNK         0.0481 
     23 CB         16.8433  -24.3137  -42.8269 C.3       2 UNK        -0.1831 
     24 N          18.6403  -25.3390  -44.2113 N.am      2 UNK        -0.4498 
     25 C          19.6938  -25.5949  -43.4179 C.2       1 UNK         0.5027 
     26 O          19.6060  -25.7660  -42.2043 O.2       1 UNK        -0.4969 
     27 C          17.9349  -29.5898  -42.1032 C.2       3 UNK         0.5005 
     28 O          17.4318  -30.5273  -41.4809 O.2       3 UNK        -0.5279 
     29 N          18.9172  -28.8194  -41.6148 N.am      4 UNK        -0.4463 
     30 CA         19.6193  -28.9994  -40.3471 C.3       4 UNK         0.0283 
     31 CB         18.6927  -28.6604  -39.1551 C.3       4 UNK        -0.1875 
     32 C          20.9068  -28.1547  -40.3964 C.2       4 UNK         0.4949 
     33 O          21.5303  -28.0641  -41.4580 O.2       4 UNK        -0.5039 
     34 N          21.2678  -27.5351  -39.2627 N.am      5 UNK        -0.4663 
     35 CA         22.3565  -26.5676  -39.0803 C.3       5 UNK         0.0242 
     36 CB         21.9762  -25.2174  -39.7317 C.3       5 UNK        -0.1982 
     37 C          23.7234  -27.1211  -39.5265 C.2       5 UNK         0.5017 
     38 O          24.1015  -28.2075  -39.0853 O.2       5 UNK        -0.5012 
     39 N          24.4322  -26.3801  -40.3902 N.am      6 UNK        -0.4439 
     40 CA         25.7740  -26.6870  -40.8971 C.3       6 UNK         0.0297 
     41 CB         26.2753  -25.5029  -41.7404 C.3       6 UNK        -0.2006 
     42 C          25.8920  -28.0019  -41.6915 C.2       6 UNK         0.4892 
     43 O          27.0053  -28.5107  -41.8273 O.2       6 UNK        -0.5089 
     44 N          24.7667  -28.5404  -42.1857 N.am      7 UNK        -0.4243 
     45 CA         24.7097  -29.8574  -42.8253 C.3       7 UNK         0.0196 
     46 CB         23.4413  -29.9529  -43.6854 C.3       7 UNK        -0.2007 
     47 C          24.7712  -31.0206  -41.8169 C.2       7 UNK         0.5020 
     48 O          25.0541  -32.1456  -42.2276 O.2       7 UNK        -0.5147 
     49 N          24.4948  -30.7415  -40.5315 N.am      8 UNK        -0.4734 
     50 CA         24.5157  -31.6554  -39.3783 C.3       8 UNK         0.0238 
     51 CB         25.9418  -32.1923  -39.1334 C.3       8 UNK        -0.1912 
     52 C          23.4704  -32.7898  -39.4208 C.2       8 UNK         0.5038 
     53 O          23.5254  -33.6882  -38.5794 O.2       8 UNK        -0.5046 
     54 N          22.5320  -32.7282  -40.3723 N.am      9 UNK        -0.4200 
     55 CA         21.4527  -33.7041  -40.5763 C.3       9 UNK         0.0839 
     56 C          20.2081  -33.5084  -39.6603 C.2       9 UNK         0.5513 
     57 N          20.1774  -32.5160  -38.7783 N.am      9 UNK        -0.7519 
     58 O          19.2631  -34.2897  -39.7332 O.2       9 UNK        -0.4960 
     59 C59        21.0889  -33.8294  -42.0791 C.3       10 UNK        -0.0876 
     60 S60        20.5528  -32.2650  -42.8506 S.3       10 UNK        -0.2414 
     61 C61        20.7054  -32.7082  -44.6073 C.3       10 UNK         0.0169 
     62 H62        23.8583  -25.6190  -45.9842 H         1 UNK         0.0903 
     63 H63        24.6845  -24.3213  -45.1296 H         1 UNK         0.0903 
     64 H64        23.7910  -25.5222  -44.2185 H         1 UNK         0.0903 
     65 H65        20.5772  -23.8377  -44.8818 H         1 UNK         0.3096 
     66 H66        21.7754  -25.8299  -43.2853 H         1 UNK         0.1121 
     67 H67        20.8157  -27.8795  -44.4327 H         1 UNK         0.0849 
     68 H68        22.2052  -27.2120  -45.2165 H         1 UNK         0.0849 
     69 H69        21.8102  -28.6019  -47.3193 H         1 UNK         0.0865 
     70 H70        20.4979  -28.3942  -48.4490 H         1 UNK         0.0865 
     71 H71        21.7264  -30.4999  -45.8541 H         1 UNK         0.1346 
     72 H72        18.0747  -32.6622  -45.2584 H         1 UNK         0.1412 
     73 H73        18.0808  -29.0649  -47.5964 H         1 UNK         0.1426 
     74 H74        16.0304  -31.9296  -46.2450 H         1 UNK         0.0716 
     75 H75        16.1245  -30.8775  -47.6375 H         1 UNK         0.0716 
     76 H76        16.1862  -31.0462  -43.7859 H         1 UNK         0.0695 
     77 H77        15.3196  -29.6279  -43.2560 H         1 UNK         0.0695 
     78 H78        18.2414  -29.7196  -44.1456 H         1 UNK         0.0983 
     79 H79        18.1596  -27.6208  -44.6230 H         1 UNK         0.3095 
     80 H80        16.6441  -25.2703  -44.7338 H         1 UNK         0.0454 
     81 H81        15.7670  -24.2959  -42.6521 H         1 UNK         0.0851 
     82 H82        17.1249  -23.3316  -43.2058 H         1 UNK         0.0851 
     83 H83        17.3248  -24.4510  -41.8583 H         1 UNK         0.0851 
     84 H84        18.8169  -25.2444  -45.2038 H         1 UNK         0.2976 
     85 H85        19.2805  -28.0571  -42.1743 H         1 UNK         0.3116 
     86 H86        19.9254  -30.0444  -40.2750 H         1 UNK         0.0646 
     87 H87        17.7807  -29.2563  -39.1729 H         1 UNK         0.0847 
     88 H88        18.3972  -27.6102  -39.1625 H         1 UNK         0.0847 
     89 H89        19.1744  -28.8701  -38.1997 H         1 UNK         0.0847 
     90 H90        20.7072  -27.7087  -38.4406 H         1 UNK         0.3040 
     91 H91        22.4429  -26.4011  -38.0053 H         1 UNK         0.1015 
     92 H92        22.7007  -24.4382  -39.4915 H         1 UNK         0.0786 
     93 H93        21.0089  -24.8692  -39.3686 H         1 UNK         0.0786 
     94 H94        21.9045  -25.2905  -40.8169 H         1 UNK         0.0786 
     95 H95        24.0253  -25.5088  -40.6976 H         1 UNK         0.3172 
     96 H96        26.4293  -26.7845  -40.0290 H         1 UNK         0.0595 
     97 H97        25.6454  -25.3313  -42.6132 H         1 UNK         0.0839 
     98 H98        27.2887  -25.6824  -42.1027 H         1 UNK         0.0839 
     99 H99        26.3033  -24.5817  -41.1580 H         1 UNK         0.0839 
    100 H100       23.8830  -28.0790  -42.0099 H         1 UNK         0.2998 
    101 H101       25.5718  -29.9597  -43.4883 H         1 UNK         0.0822 
    102 H102       23.3920  -30.9185  -44.1896 H         1 UNK         0.0787 
    103 H103       23.4280  -29.1837  -44.4566 H         1 UNK         0.0787 
    104 H104       22.5339  -29.8523  -43.0898 H         1 UNK         0.0787 
    105 H105       24.2845  -29.7764  -40.2907 H         1 UNK         0.3055 
    106 H106       24.2462  -31.0442  -38.5152 H         1 UNK         0.1106 
    107 H107       26.6662  -31.3799  -39.0749 H         1 UNK         0.0828 
    108 H108       25.9991  -32.7421  -38.1931 H         1 UNK         0.0828 
    109 H109       26.2614  -32.8713  -39.9244 H         1 UNK         0.0828 
    110 H110       22.5540  -31.9561  -41.0215 H         1 UNK         0.2931 
    111 H111       21.8488  -34.6795  -40.2872 H         1 UNK         0.0412 
    112 H112       20.9609  -31.8921  -38.6846 H         1 UNK         0.3472 
    113 H113       19.3687  -32.4095  -38.1866 H         1 UNK         0.3472 
    114 H114       20.3103  -34.5800  -42.2277 H         1 UNK         0.0970 
    115 H115       21.9594  -34.1984  -42.6241 H         1 UNK         0.0970 
    116 H116       21.7607  -32.7658  -44.8780 H         1 UNK         0.0612 
    117 H117       20.2867  -33.7023  -44.7717 H         1 UNK         0.0612 
@<TRIPOS>BOND
     1    1    2 1    
     2    1   62 1    
     3    1   63 1    
     4    1   64 1    
     5    2    3 2    
     6    2    4 am   BACKBONE|DICT|INTERRES
     7    4    5 1    
     8    4   65 1    
     9    5    6 1    
    10    5   25 1    
    11    5   66 1    
    12    6    7 1    
    13    6   67 1    
    14    6   68 1    
    15    7    8 1    
    16    8    9 1    
    17    8   69 1    
    18    8   70 1    
    19    9   10 ar   
    20    9   14 ar   
    21   10   11 ar   
    22   10   71 1    
    23   11   12 ar   
    24   11   61 1    
    25   12   13 ar   
    26   12   72 1    
    27   13   14 ar   
    28   13   15 1    
    29   14   73 1    
    30   15   16 1    
    31   15   74 1    
    32   15   75 1    
    33   16   17 1    
    34   17   18 1    
    35   17   76 1    
    36   17   77 1    
    37   18   19 1    
    38   18   27 1    
    39   18   78 1    
    40   19   20 am   BACKBONE|DICT|INTERRES
    41   19   79 1    
    42   20   21 2    
    43   20   22 1    
    44   22   23 1    
    45   22   24 1    
    46   22   80 1    
    47   23   81 1    
    48   23   82 1    
    49   23   83 1    
    50   24   25 am   BACKBONE|DICT|INTERRES
    51   24   84 1    
    52   25   26 2    
    53   27   28 2    
    54   27   29 am   BACKBONE|DICT|INTERRES
    55   29   30 1    
    56   29   85 1    
    57   30   31 1    
    58   30   32 1    
    59   30   86 1    
    60   31   87 1    
    61   31   88 1    
    62   31   89 1    
    63   32   33 2    
    64   32   34 am   BACKBONE|DICT|INTERRES
    65   34   35 1    
    66   34   90 1    
    67   35   36 1    
    68   35   37 1    
    69   35   91 1    
    70   36   92 1    
    71   36   93 1    
    72   36   94 1    
    73   37   38 2    
    74   37   39 am   BACKBONE|DICT|INTERRES
    75   39   40 1    
    76   39   95 1    
    77   40   41 1    
    78   40   42 1    
    79   40   96 1    
    80   41   97 1    
    81   41   98 1    
    82   41   99 1    
    83   42   43 2    
    84   42   44 am   BACKBONE|DICT|INTERRES
    85   44   45 1    
    86   44  100 1    
    87   45   46 1    
    88   45   47 1    
    89   45  101 1    
    90   46  102 1    
    91   46  103 1    
    92   46  104 1    
    93   47   48 2    
    94   47   49 am   BACKBONE|DICT|INTERRES
    95   49   50 1    
    96   49  105 1    
    97   50   51 1    
    98   50   52 1    
    99   50  106 1    
   100   51  107 1    
   101   51  108 1    
   102   51  109 1    
   103   52   53 2    
   104   52   54 am   BACKBONE|DICT|INTERRES
   105   54   55 1    
   106   54  110 1    
   107   55   56 1    
   108   55   59 1    
   109   55  111 1    
   110   56   57 am   BACKBONE|DICT|INTERRES
   111   56   58 2    
   112   57  112 1    
   113   57  113 1    
   114   59   60 1    
   115   59  114 1    
   116   59  115 1    
   117   60   61 1    
   118   61  116 1    
   119   61  117 1    
@<TRIPOS>SUBSTRUCTURE
     1 UNK         1 GROUP             0       ****    0 ROOT    
