@<TRIPOS>MOLECULE
3R8
117   119    1
SMALL
USER_CHARGES


@<TRIPOS>ATOM
      1 CA         12.2978  -24.7880  -46.5825 C.3       0 UNK        -0.2013 
      2 C          13.8086  -24.6434  -46.6911 C.2       0 UNK         0.4866 
      3 O          14.3009  -23.5375  -46.9163 O.2       0 UNK        -0.5176 
      4 N          14.5399  -25.7546  -46.5453 N.am      1 UNK        -0.4884 
      5 CA         16.0031  -25.8204  -46.5456 C.3       1 UNK         0.0853 
      6 C6         16.5151  -27.1369  -47.1944 C.3       10 UNK        -0.0849 
      7 S7         15.7714  -28.6746  -46.5279 S.3       10 UNK        -0.2776 
      8 C8         17.1192  -29.8796  -46.7472 C.3       10 UNK         0.0316 
      9 C9         18.2850  -29.6145  -45.8055 C.ar      10 UNK        -0.0863 
     10 C10        18.2253  -30.0321  -44.4722 C.ar      10 UNK        -0.1009 
     11 C11        19.3021  -29.8023  -43.6104 C.ar      10 UNK        -0.0712 
     12 C12        20.4421  -29.1544  -44.0897 C.ar      10 UNK        -0.0894 
     13 C13        20.5098  -28.7229  -45.4178 C.ar      10 UNK        -0.0745 
     14 C14        19.4318  -28.9653  -46.2720 C.ar      10 UNK        -0.0972 
     15 C15        21.7425  -28.0006  -45.9413 C.3       10 UNK         0.0209 
     16 S16        21.6354  -26.2017  -45.6703 S.3       10 UNK        -0.2568 
     17 C17        22.0810  -26.0834  -43.9050 C.3       10 UNK        -0.0983 
     18 CA         20.9640  -25.5044  -42.9975 C.3       3 UNK         0.0876 
     19 N          19.6595  -26.1401  -43.2222 N.am      3 UNK        -0.4424 
     20 C          18.5063  -25.7361  -42.6747 C.2       2 UNK         0.4918 
     21 O          18.3929  -24.7201  -41.9849 O.2       2 UNK        -0.4875 
     22 CA         17.2777  -26.6188  -42.9644 C.3       2 UNK         0.0481 
     23 CB         16.0744  -26.2783  -42.0605 C.3       2 UNK        -0.1831 
     24 N          16.8744  -26.6014  -44.3753 N.am      2 UNK        -0.4498 
     25 C          16.5278  -25.5397  -45.1194 C.2       1 UNK         0.5027 
     26 O          16.5750  -24.3754  -44.7195 O.2       1 UNK        -0.4969 
     27 C          21.4017  -25.6141  -41.5192 C.2       3 UNK         0.5005 
     28 O          20.9818  -26.5388  -40.8174 O.2       3 UNK        -0.5279 
     29 N          22.2794  -24.6961  -41.0880 N.am      4 UNK        -0.4463 
     30 CA         22.8471  -24.6537  -39.7340 C.3       4 UNK         0.0283 
     31 CB         23.6350  -23.3460  -39.5535 C.3       4 UNK        -0.1875 
     32 C          23.7334  -25.8653  -39.3842 C.2       4 UNK         0.4949 
     33 O          23.8394  -26.2115  -38.2074 O.2       4 UNK        -0.5039 
     34 N          24.3397  -26.4894  -40.3996 N.am      5 UNK        -0.4663 
     35 CA         25.1127  -27.7218  -40.2983 C.3       5 UNK         0.0242 
     36 CB         26.5717  -27.4010  -39.9268 C.3       5 UNK        -0.1982 
     37 C          25.0304  -28.4571  -41.6401 C.2       5 UNK         0.5017 
     38 O          24.8642  -27.8132  -42.6796 O.2       5 UNK        -0.5012 
     39 N          25.1672  -29.7828  -41.5876 N.am      6 UNK        -0.4439 
     40 CA         25.1268  -30.7193  -42.7058 C.3       6 UNK         0.0297 
     41 CB         23.6923  -30.8332  -43.2669 C.3       6 UNK        -0.2006 
     42 C          25.6910  -32.0638  -42.2175 C.2       6 UNK         0.4892 
     43 O          26.3515  -32.1066  -41.1759 O.2       6 UNK        -0.5089 
     44 N          25.4274  -33.1393  -42.9718 N.am      7 UNK        -0.4243 
     45 CA         25.8982  -34.5025  -42.6994 C.3       7 UNK         0.0196 
     46 CB         25.5982  -35.3851  -43.9226 C.3       7 UNK        -0.2007 
     47 C          25.3231  -35.1469  -41.4220 C.2       7 UNK         0.5020 
     48 O          25.9107  -36.1102  -40.9284 O.2       7 UNK        -0.5147 
     49 N          24.2006  -34.6261  -40.9109 N.am      8 UNK        -0.4734 
     50 CA         23.5654  -35.0818  -39.6739 C.3       8 UNK         0.0238 
     51 CB         22.6616  -36.3015  -39.9396 C.3       8 UNK        -0.1912 
     52 C          22.7941  -33.9365  -39.0112 C.2       8 UNK         0.5038 
     53 O          23.0584  -33.6225  -37.8499 O.2       8 UNK        -0.5046 
     54 N          21.8570  -33.3393  -39.7584 N.am      9 UNK        -0.4200 
     55 CA         21.0408  -32.1960  -39.3251 C.3       9 UNK         0.0839 
     56 C          21.8204  -30.8488  -39.2729 C.2       9 UNK         0.5513 
     57 N          21.2028  -29.7961  -38.7540 N.am      9 UNK        -0.7519 
     58 O          22.9692  -30.7430  -39.6949 O.2       9 UNK        -0.4960 
     59 C59        19.7184  -32.1169  -40.1353 C.3       10 UNK        -0.0876 
     60 S60        19.9498  -31.8936  -41.9338 S.3       10 UNK        -0.2414 
     61 C61        19.2351  -30.2375  -42.1565 C.3       10 UNK         0.0169 
     62 H62        11.9983  -25.8193  -46.3966 H         1 UNK         0.0903 
     63 H63        11.9201  -24.1731  -45.7660 H         1 UNK         0.0903 
     64 H64        11.8219  -24.4584  -47.5057 H         1 UNK         0.0903 
     65 H65        14.0784  -26.6344  -46.3577 H         1 UNK         0.3096 
     66 H66        16.3873  -25.0046  -47.1630 H         1 UNK         0.1121 
     67 H67        16.2924  -27.1128  -48.2623 H         1 UNK         0.0849 
     68 H68        17.6020  -27.1755  -47.1342 H         1 UNK         0.0849 
     69 H69        16.7284  -30.8819  -46.5652 H         1 UNK         0.0865 
     70 H70        17.4497  -29.8699  -47.7872 H         1 UNK         0.0865 
     71 H71        17.3411  -30.5363  -44.1059 H         1 UNK         0.1346 
     72 H72        21.2681  -28.9819  -43.4159 H         1 UNK         0.1412 
     73 H73        19.4868  -28.6438  -47.3034 H         1 UNK         0.1426 
     74 H74        21.8511  -28.1835  -47.0115 H         1 UNK         0.0716 
     75 H75        22.6477  -28.3969  -45.4789 H         1 UNK         0.0716 
     76 H76        22.9715  -25.4552  -43.8435 H         1 UNK         0.0695 
     77 H77        22.4001  -27.0626  -43.5479 H         1 UNK         0.0695 
     78 H78        20.8430  -24.4453  -43.2353 H         1 UNK         0.0983 
     79 H79        19.6676  -26.9755  -43.7903 H         1 UNK         0.3095 
     80 H80        17.5690  -27.6445  -42.7374 H         1 UNK         0.0454 
     81 H81        16.3461  -26.3531  -41.0068 H         1 UNK         0.0851 
     82 H82        15.7107  -25.2643  -42.2304 H         1 UNK         0.0851 
     83 H83        15.2447  -26.9641  -42.2304 H         1 UNK         0.0851 
     84 H84        16.8012  -27.5093  -44.8196 H         1 UNK         0.2976 
     85 H85        22.5849  -23.9743  -41.7259 H         1 UNK         0.3116 
     86 H86        22.0140  -24.6483  -39.0278 H         1 UNK         0.0646 
     87 H87        24.0443  -23.2740  -38.5447 H         1 UNK         0.0847 
     88 H88        22.9997  -22.4731  -39.7046 H         1 UNK         0.0847 
     89 H89        24.4728  -23.2789  -40.2487 H         1 UNK         0.0847 
     90 H90        24.1779  -26.1757  -41.3482 H         1 UNK         0.3040 
     91 H91        24.6691  -28.3602  -39.5299 H         1 UNK         0.1015 
     92 H92        26.6345  -26.8975  -38.9619 H         1 UNK         0.0786 
     93 H93        27.0434  -26.7585  -40.6714 H         1 UNK         0.0786 
     94 H94        27.1672  -28.3120  -39.8553 H         1 UNK         0.0786 
     95 H95        25.3281  -30.2339  -40.6940 H         1 UNK         0.3172 
     96 H96        25.7916  -30.3524  -43.4901 H         1 UNK         0.0595 
     97 H97        23.3376  -29.8660  -43.6167 H         1 UNK         0.0839 
     98 H98        22.9910  -31.1924  -42.5126 H         1 UNK         0.0839 
     99 H99        23.6364  -31.5056  -44.1229 H         1 UNK         0.0839 
    100 H100       24.8798  -33.0143  -43.8109 H         1 UNK         0.2998 
    101 H101       26.9819  -34.4564  -42.5705 H         1 UNK         0.0822 
    102 H102       26.0808  -34.9988  -44.8206 H         1 UNK         0.0787 
    103 H103       25.9671  -36.4009  -43.7721 H         1 UNK         0.0787 
    104 H104       24.5271  -35.4538  -44.1174 H         1 UNK         0.0787 
    105 H105       23.8185  -33.7965  -41.3421 H         1 UNK         0.3055 
    106 H106       24.3443  -35.3822  -38.9686 H         1 UNK         0.1106 
    107 H107       21.8996  -36.0897  -40.6901 H         1 UNK         0.0828 
    108 H108       23.2428  -37.1552  -40.2885 H         1 UNK         0.0828 
    109 H109       22.1481  -36.6130  -39.0290 H         1 UNK         0.0828 
    110 H110       21.6953  -33.6563  -40.7022 H         1 UNK         0.2931 
    111 H111       20.7546  -32.3998  -38.2912 H         1 UNK         0.0412 
    112 H112       21.6858  -28.9118  -38.7304 H         1 UNK         0.3472 
    113 H113       20.2672  -29.8632  -38.3866 H         1 UNK         0.3472 
    114 H114       19.0728  -31.3308  -39.7407 H         1 UNK         0.0970 
    115 H115       19.1547  -33.0398  -39.9908 H         1 UNK         0.0970 
    116 H116       18.1992  -30.2391  -41.8136 H         1 UNK         0.0612 
    117 H117       19.7702  -29.5229  -41.5282 H         1 UNK         0.0612 
@<TRIPOS>BOND
     1    1    2 1    
     2    1   62 1    
     3    1   63 1    
     4    1   64 1    
     5    2    3 2    
     6    2    4 am   BACKBONE|DICT|INTERRES
     7    4    5 1    
     8    4   65 1    
     9    5    6 1    
    10    5   25 1    
    11    5   66 1    
    12    6    7 1    
    13    6   67 1    
    14    6   68 1    
    15    7    8 1    
    16    8    9 1    
    17    8   69 1    
    18    8   70 1    
    19    9   10 ar   
    20    9   14 ar   
    21   10   11 ar   
    22   10   71 1    
    23   11   12 ar   
    24   11   61 1    
    25   12   13 ar   
    26   12   72 1    
    27   13   14 ar   
    28   13   15 1    
    29   14   73 1    
    30   15   16 1    
    31   15   74 1    
    32   15   75 1    
    33   16   17 1    
    34   17   18 1    
    35   17   76 1    
    36   17   77 1    
    37   18   19 1    
    38   18   27 1    
    39   18   78 1    
    40   19   20 am   BACKBONE|DICT|INTERRES
    41   19   79 1    
    42   20   21 2    
    43   20   22 1    
    44   22   23 1    
    45   22   24 1    
    46   22   80 1    
    47   23   81 1    
    48   23   82 1    
    49   23   83 1    
    50   24   25 am   BACKBONE|DICT|INTERRES
    51   24   84 1    
    52   25   26 2    
    53   27   28 2    
    54   27   29 am   BACKBONE|DICT|INTERRES
    55   29   30 1    
    56   29   85 1    
    57   30   31 1    
    58   30   32 1    
    59   30   86 1    
    60   31   87 1    
    61   31   88 1    
    62   31   89 1    
    63   32   33 2    
    64   32   34 am   BACKBONE|DICT|INTERRES
    65   34   35 1    
    66   34   90 1    
    67   35   36 1    
    68   35   37 1    
    69   35   91 1    
    70   36   92 1    
    71   36   93 1    
    72   36   94 1    
    73   37   38 2    
    74   37   39 am   BACKBONE|DICT|INTERRES
    75   39   40 1    
    76   39   95 1    
    77   40   41 1    
    78   40   42 1    
    79   40   96 1    
    80   41   97 1    
    81   41   98 1    
    82   41   99 1    
    83   42   43 2    
    84   42   44 am   BACKBONE|DICT|INTERRES
    85   44   45 1    
    86   44  100 1    
    87   45   46 1    
    88   45   47 1    
    89   45  101 1    
    90   46  102 1    
    91   46  103 1    
    92   46  104 1    
    93   47   48 2    
    94   47   49 am   BACKBONE|DICT|INTERRES
    95   49   50 1    
    96   49  105 1    
    97   50   51 1    
    98   50   52 1    
    99   50  106 1    
   100   51  107 1    
   101   51  108 1    
   102   51  109 1    
   103   52   53 2    
   104   52   54 am   BACKBONE|DICT|INTERRES
   105   54   55 1    
   106   54  110 1    
   107   55   56 1    
   108   55   59 1    
   109   55  111 1    
   110   56   57 am   BACKBONE|DICT|INTERRES
   111   56   58 2    
   112   57  112 1    
   113   57  113 1    
   114   59   60 1    
   115   59  114 1    
   116   59  115 1    
   117   60   61 1    
   118   61  116 1    
   119   61  117 1    
@<TRIPOS>SUBSTRUCTURE
     1 UNK         1 GROUP             0       ****    0 ROOT    
