@<TRIPOS>MOLECULE
3R8
117   119    1
SMALL
USER_CHARGES


@<TRIPOS>ATOM
      1 CA         16.1969  -29.0204  -41.7029 C.3       0 UNK        -0.2013 
      2 C          15.9648  -27.7056  -42.4321 C.2       0 UNK         0.4866 
      3 O          14.9468  -27.0523  -42.2022 O.2       0 UNK        -0.5176 
      4 N          16.8987  -27.3136  -43.3057 N.am      1 UNK        -0.4884 
      5 CA         16.8632  -26.0631  -44.0620 C.3       1 UNK         0.0853 
      6 C6         16.0156  -26.1663  -45.3610 C.3       10 UNK        -0.0849 
      7 S7         16.7098  -27.1945  -46.7015 S.3       10 UNK        -0.2776 
      8 C8         16.3160  -28.8998  -46.1678 C.3       10 UNK         0.0316 
      9 C9         17.5237  -29.6762  -45.6389 C.ar      10 UNK        -0.0863 
     10 C10        17.3547  -30.6298  -44.6289 C.ar      10 UNK        -0.1009 
     11 C11        18.4321  -31.4070  -44.1885 C.ar      10 UNK        -0.0712 
     12 C12        19.6905  -31.2141  -44.7682 C.ar      10 UNK        -0.0894 
     13 C13        19.8886  -30.2604  -45.7697 C.ar      10 UNK        -0.0745 
     14 C14        18.7916  -29.5084  -46.2064 C.ar      10 UNK        -0.0972 
     15 C15        21.2779  -30.1291  -46.3994 C.3       10 UNK         0.0209 
     16 S16        21.5637  -28.5718  -47.3117 S.3       10 UNK        -0.2568 
     17 C17        22.9099  -27.7828  -46.3644 C.3       10 UNK        -0.0983 
     18 CA         22.4671  -26.9386  -45.1355 C.3       3 UNK         0.0876 
     19 N          21.2772  -26.1235  -45.4073 N.am      3 UNK        -0.4424 
     20 C          21.1936  -24.7994  -45.2357 C.2       2 UNK         0.4918 
     21 O          22.1131  -24.1041  -44.8032 O.2       2 UNK        -0.4875 
     22 CA         19.8557  -24.1245  -45.5987 C.3       2 UNK         0.0481 
     23 CB         19.8725  -23.6814  -47.0703 C.3       2 UNK        -0.1831 
     24 N          18.6387  -24.9109  -45.3484 N.am      2 UNK        -0.4498 
     25 C          18.2928  -25.4951  -44.1922 C.2       1 UNK         0.5027 
     26 O          19.0531  -25.5736  -43.2257 O.2       1 UNK        -0.4969 
     27 C          22.3393  -27.7696  -43.8406 C.2       3 UNK         0.5005 
     28 O          23.1889  -28.6315  -43.5997 O.2       3 UNK        -0.5279 
     29 N          21.3352  -27.4892  -42.9913 N.am      4 UNK        -0.4463 
     30 CA         21.1047  -28.1955  -41.7227 C.3       4 UNK         0.0283 
     31 CB         19.8333  -27.6705  -41.0420 C.3       4 UNK        -0.1875 
     32 C          22.2732  -28.1243  -40.7293 C.2       4 UNK         0.4949 
     33 O          22.4662  -29.0735  -39.9727 O.2       4 UNK        -0.5039 
     34 N          23.0389  -27.0260  -40.7607 N.am      5 UNK        -0.4663 
     35 CA         24.2402  -26.8354  -39.9445 C.3       5 UNK         0.0242 
     36 CB         24.6513  -25.3549  -39.9908 C.3       5 UNK        -0.1982 
     37 C          25.4157  -27.7337  -40.3710 C.2       5 UNK         0.5017 
     38 O          26.2497  -28.0655  -39.5284 O.2       5 UNK        -0.5012 
     39 N          25.4638  -28.1071  -41.6575 N.am      6 UNK        -0.4439 
     40 CA         26.4769  -28.9974  -42.2247 C.3       6 UNK         0.0297 
     41 CB         26.7280  -28.6225  -43.6952 C.3       6 UNK        -0.2006 
     42 C          26.0515  -30.4672  -42.1040 C.2       6 UNK         0.4892 
     43 O          26.8728  -31.3084  -41.7386 O.2       6 UNK        -0.5089 
     44 N          24.7770  -30.7462  -42.4089 N.am      7 UNK        -0.4243 
     45 CA         24.1860  -32.0861  -42.3768 C.3       7 UNK         0.0196 
     46 CB         22.9334  -32.0799  -43.2617 C.3       7 UNK        -0.2007 
     47 C          23.8399  -32.5911  -40.9641 C.2       7 UNK         0.5020 
     48 O          23.5989  -33.7881  -40.8065 O.2       7 UNK        -0.5147 
     49 N          23.8029  -31.6823  -39.9789 N.am      8 UNK        -0.4734 
     50 CA         23.3801  -31.8862  -38.5870 C.3       8 UNK         0.0238 
     51 CB         24.2893  -32.8988  -37.8570 C.3       8 UNK        -0.1912 
     52 C          21.8771  -32.2119  -38.4678 C.2       8 UNK         0.5038 
     53 O          21.4866  -33.0249  -37.6274 O.2       8 UNK        -0.5046 
     54 N          21.0637  -31.5523  -39.3033 N.am      9 UNK        -0.4200 
     55 CA         19.5923  -31.6140  -39.2730 C.3       9 UNK         0.0839 
     56 C          18.9555  -30.6480  -38.2326 C.2       9 UNK         0.5513 
     57 N          19.7022  -29.7311  -37.6274 N.am      9 UNK        -0.7519 
     58 O          17.7599  -30.7364  -37.9673 O.2       9 UNK        -0.4960 
     59 C59        18.9615  -31.4032  -40.6759 C.3       10 UNK        -0.0876 
     60 S60        19.5088  -32.6438  -41.8912 S.3       10 UNK        -0.2414 
     61 C61        18.2066  -32.5207  -43.1665 C.3       10 UNK         0.0169 
     62 H62        15.3674  -29.7032  -41.8843 H         1 UNK         0.0903 
     63 H63        17.1136  -29.5070  -42.0300 H         1 UNK         0.0903 
     64 H64        16.2693  -28.8481  -40.6292 H         1 UNK         0.0903 
     65 H65        17.7239  -27.8764  -43.4591 H         1 UNK         0.3096 
     66 H66        16.3648  -25.3210  -43.4336 H         1 UNK         0.1121 
     67 H67        15.0184  -26.5381  -45.1199 H         1 UNK         0.0849 
     68 H68        15.8450  -25.1674  -45.7663 H         1 UNK         0.0849 
     69 H69        15.5174  -28.8783  -45.4250 H         1 UNK         0.0865 
     70 H70        15.9167  -29.4423  -47.0256 H         1 UNK         0.0865 
     71 H71        16.3709  -30.7959  -44.2117 H         1 UNK         0.1346 
     72 H72        20.5146  -31.8399  -44.4620 H         1 UNK         0.1412 
     73 H73        18.9106  -28.8063  -47.0178 H         1 UNK         0.1426 
     74 H74        21.4210  -30.9603  -47.0907 H         1 UNK         0.0716 
     75 H75        22.0389  -30.2396  -45.6270 H         1 UNK         0.0716 
     76 H76        23.6642  -28.5285  -46.1060 H         1 UNK         0.0695 
     77 H77        23.4139  -27.1161  -47.0658 H         1 UNK         0.0695 
     78 H78        23.3065  -26.2737  -44.9210 H         1 UNK         0.0983 
     79 H79        20.4791  -26.6189  -45.7786 H         1 UNK         0.3095 
     80 H80        19.7775  -23.2277  -44.9809 H         1 UNK         0.0454 
     81 H81        20.7517  -23.0727  -47.2867 H         1 UNK         0.0851 
     82 H82        19.8935  -24.5358  -47.7482 H         1 UNK         0.0851 
     83 H83        18.9981  -23.0786  -47.3156 H         1 UNK         0.0851 
     84 H84        17.9712  -24.9508  -46.1064 H         1 UNK         0.2976 
     85 H85        20.6818  -26.7461  -43.2217 H         1 UNK         0.3116 
     86 H86        20.9594  -29.2484  -41.9697 H         1 UNK         0.0646 
     87 H87        19.6634  -28.1595  -40.0824 H         1 UNK         0.0847 
     88 H88        18.9561  -27.8555  -41.6543 H         1 UNK         0.0847 
     89 H89        19.8905  -26.5984  -40.8502 H         1 UNK         0.0847 
     90 H90        22.7926  -26.2861  -41.4024 H         1 UNK         0.3040 
     91 H91        23.9938  -27.0916  -38.9113 H         1 UNK         0.1015 
     92 H92        23.8558  -24.7102  -39.6163 H         1 UNK         0.0786 
     93 H93        24.8963  -25.0341  -41.0041 H         1 UNK         0.0786 
     94 H94        25.5305  -25.1747  -39.3704 H         1 UNK         0.0786 
     95 H95        24.6970  -27.8470  -42.2652 H         1 UNK         0.3172 
     96 H96        27.4172  -28.8711  -41.6833 H         1 UNK         0.0595 
     97 H97        27.4952  -29.2624  -44.1333 H         1 UNK         0.0839 
     98 H98        27.0748  -27.5932  -43.7874 H         1 UNK         0.0839 
     99 H99        25.8299  -28.7288  -44.3049 H         1 UNK         0.0839 
    100 H100       24.1805  -29.9942  -42.7474 H         1 UNK         0.2998 
    101 H101       24.9017  -32.7917  -42.8044 H         1 UNK         0.0822 
    102 H102       23.1857  -31.8502  -44.2964 H         1 UNK         0.0787 
    103 H103       22.4400  -33.0529  -43.2563 H         1 UNK         0.0787 
    104 H104       22.2098  -31.3406  -42.9161 H         1 UNK         0.0787 
    105 H105       23.9589  -30.7156  -40.2368 H         1 UNK         0.3055 
    106 H106       23.5106  -30.9223  -38.0921 H         1 UNK         0.1106 
    107 H107       24.1550  -33.9134  -38.2324 H         1 UNK         0.0828 
    108 H108       25.3417  -32.6366  -37.9646 H         1 UNK         0.0828 
    109 H109       24.0689  -32.9195  -36.7890 H         1 UNK         0.0828 
    110 H110       21.4787  -30.8524  -39.9061 H         1 UNK         0.2931 
    111 H111       19.3091  -32.6178  -38.9501 H         1 UNK         0.0412 
    112 H112       19.2769  -29.1174  -36.9504 H         1 UNK         0.3472 
    113 H113       20.6820  -29.6415  -37.8455 H         1 UNK         0.3472 
    114 H114       17.8738  -31.4602  -40.6046 H         1 UNK         0.0970 
    115 H115       19.1902  -30.4129  -41.0634 H         1 UNK         0.0970 
    116 H116       18.1746  -33.4674  -43.7070 H         1 UNK         0.0612 
    117 H117       17.2344  -32.4160  -42.6826 H         1 UNK         0.0612 
@<TRIPOS>BOND
     1    1    2 1    
     2    1   62 1    
     3    1   63 1    
     4    1   64 1    
     5    2    3 2    
     6    2    4 am   BACKBONE|DICT|INTERRES
     7    4    5 1    
     8    4   65 1    
     9    5    6 1    
    10    5   25 1    
    11    5   66 1    
    12    6    7 1    
    13    6   67 1    
    14    6   68 1    
    15    7    8 1    
    16    8    9 1    
    17    8   69 1    
    18    8   70 1    
    19    9   10 ar   
    20    9   14 ar   
    21   10   11 ar   
    22   10   71 1    
    23   11   12 ar   
    24   11   61 1    
    25   12   13 ar   
    26   12   72 1    
    27   13   14 ar   
    28   13   15 1    
    29   14   73 1    
    30   15   16 1    
    31   15   74 1    
    32   15   75 1    
    33   16   17 1    
    34   17   18 1    
    35   17   76 1    
    36   17   77 1    
    37   18   19 1    
    38   18   27 1    
    39   18   78 1    
    40   19   20 am   BACKBONE|DICT|INTERRES
    41   19   79 1    
    42   20   21 2    
    43   20   22 1    
    44   22   23 1    
    45   22   24 1    
    46   22   80 1    
    47   23   81 1    
    48   23   82 1    
    49   23   83 1    
    50   24   25 am   BACKBONE|DICT|INTERRES
    51   24   84 1    
    52   25   26 2    
    53   27   28 2    
    54   27   29 am   BACKBONE|DICT|INTERRES
    55   29   30 1    
    56   29   85 1    
    57   30   31 1    
    58   30   32 1    
    59   30   86 1    
    60   31   87 1    
    61   31   88 1    
    62   31   89 1    
    63   32   33 2    
    64   32   34 am   BACKBONE|DICT|INTERRES
    65   34   35 1    
    66   34   90 1    
    67   35   36 1    
    68   35   37 1    
    69   35   91 1    
    70   36   92 1    
    71   36   93 1    
    72   36   94 1    
    73   37   38 2    
    74   37   39 am   BACKBONE|DICT|INTERRES
    75   39   40 1    
    76   39   95 1    
    77   40   41 1    
    78   40   42 1    
    79   40   96 1    
    80   41   97 1    
    81   41   98 1    
    82   41   99 1    
    83   42   43 2    
    84   42   44 am   BACKBONE|DICT|INTERRES
    85   44   45 1    
    86   44  100 1    
    87   45   46 1    
    88   45   47 1    
    89   45  101 1    
    90   46  102 1    
    91   46  103 1    
    92   46  104 1    
    93   47   48 2    
    94   47   49 am   BACKBONE|DICT|INTERRES
    95   49   50 1    
    96   49  105 1    
    97   50   51 1    
    98   50   52 1    
    99   50  106 1    
   100   51  107 1    
   101   51  108 1    
   102   51  109 1    
   103   52   53 2    
   104   52   54 am   BACKBONE|DICT|INTERRES
   105   54   55 1    
   106   54  110 1    
   107   55   56 1    
   108   55   59 1    
   109   55  111 1    
   110   56   57 am   BACKBONE|DICT|INTERRES
   111   56   58 2    
   112   57  112 1    
   113   57  113 1    
   114   59   60 1    
   115   59  114 1    
   116   59  115 1    
   117   60   61 1    
   118   61  116 1    
   119   61  117 1    
@<TRIPOS>SUBSTRUCTURE
     1 UNK         1 GROUP             0       ****    0 ROOT    
