@<TRIPOS>MOLECULE
3R8
117   119    1
SMALL
USER_CHARGES


@<TRIPOS>ATOM
      1 CA         20.2777  -24.3011  -50.0488 C.3       0 UNK        -0.2013 
      2 C          20.6312  -24.8875  -48.6899 C.2       0 UNK         0.4866 
      3 O          21.7638  -24.7320  -48.2316 O.2       0 UNK        -0.5176 
      4 N          19.6751  -25.5687  -48.0471 N.am      1 UNK        -0.4884 
      5 CA         19.8254  -26.1574  -46.7129 C.3       1 UNK         0.0853 
      6 C6         18.6768  -27.1409  -46.3818 C.3       10 UNK        -0.0849 
      7 S7         18.6095  -28.6184  -47.4489 S.3       10 UNK        -0.2776 
      8 C8         19.1714  -29.9431  -46.3123 C.3       10 UNK         0.0316 
      9 C9         18.2948  -30.2329  -45.0851 C.ar      10 UNK        -0.0863 
     10 C10        18.7010  -31.2484  -44.2117 C.ar      10 UNK        -0.1009 
     11 C11        17.9659  -31.5422  -43.0585 C.ar      10 UNK        -0.0712 
     12 C12        16.8282  -30.7908  -42.7557 C.ar      10 UNK        -0.0894 
     13 C13        16.4086  -29.7716  -43.6122 C.ar      10 UNK        -0.0745 
     14 C14        17.1220  -29.5234  -44.7875 C.ar      10 UNK        -0.0972 
     15 C15        15.1900  -28.9270  -43.2717 C.3       10 UNK         0.0209 
     16 S16        15.6573  -27.2157  -42.8509 S.3       10 UNK        -0.2568 
     17 C17        16.4666  -27.4180  -41.2257 C.3       10 UNK        -0.0983 
     18 CA         18.0143  -27.4424  -41.3070 C.3       3 UNK         0.0876 
     19 N          18.5602  -26.2744  -42.0133 N.am      3 UNK        -0.4424 
     20 C          19.8604  -26.0506  -42.2446 C.2       2 UNK         0.4918 
     21 O          20.7652  -26.7921  -41.8591 O.2       2 UNK        -0.4875 
     22 CA         20.2071  -24.8709  -43.1575 C.3       2 UNK         0.0481 
     23 CB         21.4739  -24.1233  -42.7052 C.3       2 UNK        -0.1831 
     24 N          20.4281  -25.4764  -44.4628 N.am      2 UNK        -0.4498 
     25 C          19.8602  -25.0835  -45.6063 C.2       1 UNK         0.5027 
     26 O          19.2920  -23.9992  -45.7632 O.2       1 UNK        -0.4969 
     27 C          18.6290  -27.5856  -39.8987 C.2       3 UNK         0.5005 
     28 O          18.6910  -26.5957  -39.1657 O.2       3 UNK        -0.5279 
     29 N          19.1192  -28.7907  -39.5737 N.am      4 UNK        -0.4463 
     30 CA         19.8665  -29.1838  -38.3662 C.3       4 UNK         0.0283 
     31 CB         19.0441  -28.9446  -37.0847 C.3       4 UNK        -0.1875 
     32 C          21.2796  -28.5758  -38.2390 C.2       4 UNK         0.4949 
     33 O          22.1549  -29.2293  -37.6718 O.2       4 UNK        -0.5039 
     34 N          21.4879  -27.3548  -38.7453 N.am      5 UNK        -0.4663 
     35 CA         22.7572  -26.6278  -38.6921 C.3       5 UNK         0.0242 
     36 CB         22.4877  -25.1288  -38.8951 C.3       5 UNK        -0.1982 
     37 C          23.7921  -27.1344  -39.7102 C.2       5 UNK         0.5017 
     38 O          24.9777  -27.1899  -39.3798 O.2       5 UNK        -0.5012 
     39 N          23.3401  -27.4707  -40.9265 N.am      6 UNK        -0.4439 
     40 CA         24.1738  -27.9865  -42.0145 C.3       6 UNK         0.0297 
     41 CB         23.3592  -28.0019  -43.3190 C.3       6 UNK        -0.2006 
     42 C          24.7054  -29.3947  -41.7118 C.2       6 UNK         0.4892 
     43 O          23.9754  -30.2132  -41.1496 O.2       6 UNK        -0.5089 
     44 N          25.9417  -29.6689  -42.1528 N.am      7 UNK        -0.4243 
     45 CA         26.6396  -30.9504  -41.9799 C.3       7 UNK         0.0196 
     46 CB         28.0690  -30.8319  -42.5320 C.3       7 UNK        -0.2007 
     47 C          25.9160  -32.1513  -42.6148 C.2       7 UNK         0.5020 
     48 O          26.0082  -33.2600  -42.0883 O.2       7 UNK        -0.5147 
     49 N          25.1617  -31.9029  -43.6954 N.am      8 UNK        -0.4734 
     50 CA         24.2755  -32.8744  -44.3476 C.3       8 UNK         0.0238 
     51 CB         23.7373  -32.2635  -45.6522 C.3       8 UNK        -0.1912 
     52 C          23.1077  -33.3482  -43.4588 C.2       8 UNK         0.5038 
     53 O          22.5553  -34.4173  -43.7200 O.2       8 UNK        -0.5046 
     54 N          22.7638  -32.5555  -42.4362 N.am      9 UNK        -0.4200 
     55 CA         21.7732  -32.8633  -41.3997 C.3       9 UNK         0.0839 
     56 C          22.4203  -33.3770  -40.0764 C.2       9 UNK         0.5513 
     57 N          23.7255  -33.6213  -40.0170 N.am      9 UNK        -0.7519 
     58 O          21.7269  -33.5891  -39.0858 O.2       9 UNK        -0.4960 
     59 C59        20.8291  -31.6455  -41.1964 C.3       10 UNK        -0.0876 
     60 S60        19.1637  -32.1126  -40.6160 S.3       10 UNK        -0.2414 
     61 C61        18.3773  -32.6905  -42.1510 C.3       10 UNK         0.0169 
     62 H62        20.9406  -24.7026  -50.8148 H         1 UNK         0.0903 
     63 H63        19.2512  -24.5276  -50.3364 H         1 UNK         0.0903 
     64 H64        20.3936  -23.2178  -50.0310 H         1 UNK         0.0903 
     65 H65        18.7601  -25.6616  -48.4648 H         1 UNK         0.3096 
     66 H66        20.7733  -26.7006  -46.6901 H         1 UNK         0.1121 
     67 H67        17.7116  -26.6343  -46.4509 H         1 UNK         0.0849 
     68 H68        18.7598  -27.4724  -45.3455 H         1 UNK         0.0849 
     69 H69        19.2621  -30.8619  -46.8935 H         1 UNK         0.0865 
     70 H70        20.1790  -29.6979  -45.9731 H         1 UNK         0.0865 
     71 H71        19.5921  -31.8203  -44.4343 H         1 UNK         0.1346 
     72 H72        16.2700  -31.0048  -41.8542 H         1 UNK         0.1412 
     73 H73        16.7602  -28.7477  -45.4452 H         1 UNK         0.1426 
     74 H74        14.6215  -29.3647  -42.4497 H         1 UNK         0.0716 
     75 H75        14.5183  -28.9072  -44.1312 H         1 UNK         0.0716 
     76 H76        16.0944  -28.3295  -40.7540 H         1 UNK         0.0695 
     77 H77        16.1348  -26.5941  -40.5908 H         1 UNK         0.0695 
     78 H78        18.3066  -28.3157  -41.8943 H         1 UNK         0.0983 
     79 H79        17.8761  -25.6318  -42.3845 H         1 UNK         0.3095 
     80 H80        19.3674  -24.1729  -43.1808 H         1 UNK         0.0454 
     81 H81        22.3329  -24.7874  -42.6023 H         1 UNK         0.0851 
     82 H82        21.3131  -23.6400  -41.7415 H         1 UNK         0.0851 
     83 H83        21.7428  -23.3420  -43.4160 H         1 UNK         0.0851 
     84 H84        20.8554  -26.3919  -44.4238 H         1 UNK         0.2976 
     85 H85        19.0265  -29.5321  -40.2560 H         1 UNK         0.3116 
     86 H86        20.0111  -30.2614  -38.4500 H         1 UNK         0.0646 
     87 H87        18.8886  -27.8836  -36.8880 H         1 UNK         0.0847 
     88 H88        19.5548  -29.3597  -36.2149 H         1 UNK         0.0847 
     89 H89        18.0668  -29.4232  -37.1447 H         1 UNK         0.0847 
     90 H90        20.6941  -26.8785  -39.1605 H         1 UNK         0.3040 
     91 H91        23.1869  -26.7617  -37.6966 H         1 UNK         0.1015 
     92 H92        22.0154  -24.9343  -39.8574 H         1 UNK         0.0786 
     93 H93        23.4151  -24.5552  -38.8622 H         1 UNK         0.0786 
     94 H94        21.8346  -24.7348  -38.1162 H         1 UNK         0.0786 
     95 H95        22.3466  -27.3682  -41.1235 H         1 UNK         0.3172 
     96 H96        25.0200  -27.3079  -42.1409 H         1 UNK         0.0595 
     97 H97        22.4740  -28.6341  -43.2331 H         1 UNK         0.0839 
     98 H98        23.9529  -28.3812  -44.1516 H         1 UNK         0.0839 
     99 H99        23.0313  -26.9990  -43.5902 H         1 UNK         0.0839 
    100 H100       26.4594  -28.9371  -42.6186 H         1 UNK         0.2998 
    101 H101       26.7014  -31.1437  -40.9067 H         1 UNK         0.0822 
    102 H102       28.6298  -30.0499  -42.0196 H         1 UNK         0.0787 
    103 H103       28.6190  -31.7642  -42.3943 H         1 UNK         0.0787 
    104 H104       28.0732  -30.6059  -43.5991 H         1 UNK         0.0787 
    105 H105       25.1532  -30.9616  -44.0604 H         1 UNK         0.3055 
    106 H106       24.8694  -33.7570  -44.5955 H         1 UNK         0.1106 
    107 H107       23.0962  -32.9715  -46.1795 H         1 UNK         0.0828 
    108 H108       23.1457  -31.3663  -45.4651 H         1 UNK         0.0828 
    109 H109       24.5478  -31.9979  -46.3313 H         1 UNK         0.0828 
    110 H110       23.3102  -31.7191  -42.2566 H         1 UNK         0.2931 
    111 H111       21.1679  -33.6980  -41.7546 H         1 UNK         0.0412 
    112 H112       24.1191  -33.9610  -39.1539 H         1 UNK         0.3472 
    113 H113       24.3257  -33.4750  -40.8185 H         1 UNK         0.3472 
    114 H114       21.2710  -30.9324  -40.4981 H         1 UNK         0.0970 
    115 H115       20.7085  -31.0932  -42.1293 H         1 UNK         0.0970 
    116 H116       19.0416  -33.3792  -42.6744 H         1 UNK         0.0612 
    117 H117       17.4916  -33.2704  -41.8877 H         1 UNK         0.0612 
@<TRIPOS>BOND
     1    1    2 1    
     2    1   62 1    
     3    1   63 1    
     4    1   64 1    
     5    2    3 2    
     6    2    4 am   BACKBONE|DICT|INTERRES
     7    4    5 1    
     8    4   65 1    
     9    5    6 1    
    10    5   25 1    
    11    5   66 1    
    12    6    7 1    
    13    6   67 1    
    14    6   68 1    
    15    7    8 1    
    16    8    9 1    
    17    8   69 1    
    18    8   70 1    
    19    9   10 ar   
    20    9   14 ar   
    21   10   11 ar   
    22   10   71 1    
    23   11   12 ar   
    24   11   61 1    
    25   12   13 ar   
    26   12   72 1    
    27   13   14 ar   
    28   13   15 1    
    29   14   73 1    
    30   15   16 1    
    31   15   74 1    
    32   15   75 1    
    33   16   17 1    
    34   17   18 1    
    35   17   76 1    
    36   17   77 1    
    37   18   19 1    
    38   18   27 1    
    39   18   78 1    
    40   19   20 am   BACKBONE|DICT|INTERRES
    41   19   79 1    
    42   20   21 2    
    43   20   22 1    
    44   22   23 1    
    45   22   24 1    
    46   22   80 1    
    47   23   81 1    
    48   23   82 1    
    49   23   83 1    
    50   24   25 am   BACKBONE|DICT|INTERRES
    51   24   84 1    
    52   25   26 2    
    53   27   28 2    
    54   27   29 am   BACKBONE|DICT|INTERRES
    55   29   30 1    
    56   29   85 1    
    57   30   31 1    
    58   30   32 1    
    59   30   86 1    
    60   31   87 1    
    61   31   88 1    
    62   31   89 1    
    63   32   33 2    
    64   32   34 am   BACKBONE|DICT|INTERRES
    65   34   35 1    
    66   34   90 1    
    67   35   36 1    
    68   35   37 1    
    69   35   91 1    
    70   36   92 1    
    71   36   93 1    
    72   36   94 1    
    73   37   38 2    
    74   37   39 am   BACKBONE|DICT|INTERRES
    75   39   40 1    
    76   39   95 1    
    77   40   41 1    
    78   40   42 1    
    79   40   96 1    
    80   41   97 1    
    81   41   98 1    
    82   41   99 1    
    83   42   43 2    
    84   42   44 am   BACKBONE|DICT|INTERRES
    85   44   45 1    
    86   44  100 1    
    87   45   46 1    
    88   45   47 1    
    89   45  101 1    
    90   46  102 1    
    91   46  103 1    
    92   46  104 1    
    93   47   48 2    
    94   47   49 am   BACKBONE|DICT|INTERRES
    95   49   50 1    
    96   49  105 1    
    97   50   51 1    
    98   50   52 1    
    99   50  106 1    
   100   51  107 1    
   101   51  108 1    
   102   51  109 1    
   103   52   53 2    
   104   52   54 am   BACKBONE|DICT|INTERRES
   105   54   55 1    
   106   54  110 1    
   107   55   56 1    
   108   55   59 1    
   109   55  111 1    
   110   56   57 am   BACKBONE|DICT|INTERRES
   111   56   58 2    
   112   57  112 1    
   113   57  113 1    
   114   59   60 1    
   115   59  114 1    
   116   59  115 1    
   117   60   61 1    
   118   61  116 1    
   119   61  117 1    
@<TRIPOS>SUBSTRUCTURE
     1 UNK         1 GROUP             0       ****    0 ROOT    
