@<TRIPOS>MOLECULE
3R8
117   119    1
SMALL
USER_CHARGES


@<TRIPOS>ATOM
      1 CA         12.5681  -25.1153  -42.4677 C.3       0 UNK        -0.2013 
      2 C          13.9378  -25.0882  -43.1302 C.2       0 UNK         0.4866 
      3 O          14.6933  -24.1349  -42.9363 O.2       0 UNK        -0.5176 
      4 N          14.2595  -26.1208  -43.9188 N.am      1 UNK        -0.4884 
      5 CA         15.5603  -26.3047  -44.5695 C.3       1 UNK         0.0853 
      6 C6         15.4679  -27.2894  -45.7656 C.3       10 UNK        -0.0849 
      7 S7         14.7799  -28.9281  -45.3324 S.3       10 UNK        -0.2776 
      8 C8         15.8381  -30.0546  -46.2979 C.3       10 UNK         0.0316 
      9 C9         17.2674  -30.1664  -45.7739 C.ar      10 UNK        -0.0863 
     10 C10        17.5188  -30.5435  -44.4502 C.ar      10 UNK        -0.1009 
     11 C11        18.8290  -30.7435  -43.9999 C.ar      10 UNK        -0.0712 
     12 C12        19.8954  -30.5683  -44.8883 C.ar      10 UNK        -0.0894 
     13 C13        19.6570  -30.2028  -46.2169 C.ar      10 UNK        -0.0745 
     14 C14        18.3441  -29.9871  -46.6475 C.ar      10 UNK        -0.0972 
     15 C15        20.8006  -30.1258  -47.2182 C.3       10 UNK         0.0209 
     16 S16        21.4008  -28.4272  -47.4570 S.3       10 UNK        -0.2568 
     17 C17        22.6270  -28.2615  -46.1178 C.3       10 UNK        -0.0983 
     18 CA         22.3026  -27.0626  -45.1954 C.3       3 UNK         0.0876 
     19 N          21.0800  -27.2875  -44.4196 N.am      3 UNK        -0.4424 
     20 C          20.2943  -26.3185  -43.9421 C.2       2 UNK         0.4918 
     21 O          20.4963  -25.1173  -44.1322 O.2       2 UNK        -0.4875 
     22 CA         19.0895  -26.7533  -43.1093 C.3       2 UNK         0.0481 
     23 CB         19.1401  -26.1264  -41.7014 C.3       2 UNK        -0.1831 
     24 N          17.8910  -26.3539  -43.8359 N.am      2 UNK        -0.4498 
     25 C          16.6407  -26.7365  -43.5550 C.2       1 UNK         0.5027 
     26 O          16.3293  -27.4160  -42.5731 O.2       1 UNK        -0.4969 
     27 C          23.4670  -26.7196  -44.2455 C.2       3 UNK         0.5005 
     28 O          24.3432  -27.5553  -44.0140 O.2       3 UNK        -0.5279 
     29 N          23.4144  -25.5127  -43.6588 N.am      4 UNK        -0.4463 
     30 CA         24.4054  -24.8993  -42.7578 C.3       4 UNK         0.0283 
     31 CB         25.6874  -24.5540  -43.5447 C.3       4 UNK        -0.1875 
     32 C          24.7219  -25.7136  -41.4837 C.2       4 UNK         0.4949 
     33 O          25.7602  -25.4846  -40.8622 O.2       4 UNK        -0.5039 
     34 N          23.8369  -26.6611  -41.1363 N.am      5 UNK        -0.4663 
     35 CA         23.9959  -27.6939  -40.1050 C.3       5 UNK         0.0242 
     36 CB         23.9804  -27.0672  -38.6944 C.3       5 UNK        -0.1982 
     37 C          25.2134  -28.6151  -40.3479 C.2       5 UNK         0.5017 
     38 O          25.8207  -29.0909  -39.3870 O.2       5 UNK        -0.5012 
     39 N          25.5606  -28.8442  -41.6259 N.am      6 UNK        -0.4439 
     40 CA         26.7022  -29.6657  -42.0422 C.3       6 UNK         0.0297 
     41 CB         26.9801  -29.4367  -43.5364 C.3       6 UNK        -0.2006 
     42 C          26.5184  -31.1658  -41.7530 C.2       6 UNK         0.4892 
     43 O          27.5016  -31.8457  -41.4553 O.2       6 UNK        -0.5089 
     44 N          25.2741  -31.6496  -41.8359 N.am      7 UNK        -0.4243 
     45 CA         24.8680  -33.0175  -41.5329 C.3       7 UNK         0.0196 
     46 CB         25.2148  -33.9533  -42.7060 C.3       7 UNK        -0.2007 
     47 C          23.3610  -33.0192  -41.2650 C.2       7 UNK         0.5020 
     48 O          22.6452  -32.2041  -41.8544 O.2       7 UNK        -0.5147 
     49 N          22.9132  -33.9430  -40.4021 N.am      8 UNK        -0.4734 
     50 CA         21.5326  -34.2127  -39.9624 C.3       8 UNK         0.0238 
     51 CB         20.6527  -34.6830  -41.1389 C.3       8 UNK        -0.1912 
     52 C          20.8653  -33.0580  -39.1910 C.2       8 UNK         0.5038 
     53 O          20.4275  -33.2561  -38.0570 O.2       8 UNK        -0.5046 
     54 N          20.8022  -31.8858  -39.8239 N.am      9 UNK        -0.4200 
     55 CA         20.3214  -30.6180  -39.2688 C.3       9 UNK         0.0839 
     56 C          21.3414  -30.0001  -38.2748 C.2       9 UNK         0.5513 
     57 N          20.8852  -29.1196  -37.3951 N.am      9 UNK        -0.7519 
     58 O          22.5371  -30.2812  -38.3120 O.2       9 UNK        -0.4960 
     59 C59        19.9629  -29.6267  -40.4087 C.3       10 UNK        -0.0876 
     60 S60        18.4496  -30.1284  -41.2977 S.3       10 UNK        -0.2414 
     61 C61        19.0870  -31.2480  -42.5863 C.3       10 UNK         0.0169 
     62 H62        11.9918  -24.2381  -42.7608 H         1 UNK         0.0903 
     63 H63        11.9990  -26.0024  -42.7443 H         1 UNK         0.0903 
     64 H64        12.6757  -25.1061  -41.3834 H         1 UNK         0.0903 
     65 H65        13.6239  -26.9010  -44.0137 H         1 UNK         0.3096 
     66 H66        15.8614  -25.3331  -44.9695 H         1 UNK         0.1121 
     67 H67        16.4476  -27.4120  -46.2315 H         1 UNK         0.0849 
     68 H68        14.8314  -26.8584  -46.5400 H         1 UNK         0.0849 
     69 H69        15.3895  -31.0489  -46.2802 H         1 UNK         0.0865 
     70 H70        15.8265  -29.7377  -47.3422 H         1 UNK         0.0865 
     71 H71        16.6906  -30.7073  -43.7739 H         1 UNK         0.1346 
     72 H72        20.9074  -30.7650  -44.5599 H         1 UNK         0.1412 
     73 H73        18.1616  -29.7239  -47.6808 H         1 UNK         0.1426 
     74 H74        20.4591  -30.5062  -48.1822 H         1 UNK         0.0716 
     75 H75        21.6234  -30.7776  -46.9204 H         1 UNK         0.0716 
     76 H76        23.6010  -28.1268  -46.5926 H         1 UNK         0.0695 
     77 H77        22.6964  -29.1861  -45.5422 H         1 UNK         0.0695 
     78 H78        22.1593  -26.1904  -45.8382 H         1 UNK         0.0983 
     79 H79        20.8311  -28.2509  -44.2502 H         1 UNK         0.3095 
     80 H80        19.0944  -27.8400  -43.0188 H         1 UNK         0.0454 
     81 H81        19.0340  -25.0419  -41.7396 H         1 UNK         0.0851 
     82 H82        20.0881  -26.3441  -41.2090 H         1 UNK         0.0851 
     83 H83        18.3503  -26.5169  -41.0600 H         1 UNK         0.0851 
     84 H84        18.0659  -25.7841  -44.6536 H         1 UNK         0.2976 
     85 H85        22.5961  -24.9453  -43.8574 H         1 UNK         0.3116 
     86 H86        23.9643  -23.9629  -42.4130 H         1 UNK         0.0646 
     87 H87        25.4632  -23.9598  -44.4304 H         1 UNK         0.0847 
     88 H88        26.2155  -25.4522  -43.8676 H         1 UNK         0.0847 
     89 H89        26.3800  -23.9715  -42.9360 H         1 UNK         0.0847 
     90 H90        23.0245  -26.7551  -41.7278 H         1 UNK         0.3040 
     91 H91        23.1213  -28.3400  -40.1849 H         1 UNK         0.1015 
     92 H92        24.8580  -26.4454  -38.5161 H         1 UNK         0.0786 
     93 H93        23.9687  -27.8395  -37.9244 H         1 UNK         0.0786 
     94 H94        23.0938  -26.4513  -38.5444 H         1 UNK         0.0786 
     95 H95        25.0407  -28.3837  -42.3697 H         1 UNK         0.3172 
     96 H96        27.5764  -29.3273  -41.4820 H         1 UNK         0.0595 
     97 H97        26.1355  -29.7422  -44.1556 H         1 UNK         0.0839 
     98 H98        27.8496  -30.0078  -43.8647 H         1 UNK         0.0839 
     99 H99        27.1835  -28.3863  -43.7457 H         1 UNK         0.0839 
    100 H100       24.5091  -31.0279  -42.0667 H         1 UNK         0.2998 
    101 H101       25.3875  -33.3485  -40.6309 H         1 UNK         0.0822 
    102 H102       26.2891  -33.9859  -42.8879 H         1 UNK         0.0787 
    103 H103       24.8916  -34.9748  -42.5018 H         1 UNK         0.0787 
    104 H104       24.7289  -33.6350  -43.6294 H         1 UNK         0.0787 
    105 H105       23.6075  -34.5386  -39.9703 H         1 UNK         0.3055 
    106 H106       21.6018  -35.0460  -39.2605 H         1 UNK         0.1106 
    107 H107       20.5623  -33.9251  -41.9168 H         1 UNK         0.0828 
    108 H108       19.6434  -34.9211  -40.8004 H         1 UNK         0.0828 
    109 H109       21.0593  -35.5832  -41.5994 H         1 UNK         0.0828 
    110 H110       21.2929  -31.8313  -40.7125 H         1 UNK         0.2931 
    111 H111       19.4143  -30.8315  -38.6993 H         1 UNK         0.0412 
    112 H112       19.9066  -28.8806  -37.3539 H         1 UNK         0.3472 
    113 H113       21.5297  -28.7005  -36.7434 H         1 UNK         0.3472 
    114 H114       19.7680  -28.6329  -40.0020 H         1 UNK         0.0970 
    115 H115       20.7909  -29.5070  -41.1097 H         1 UNK         0.0970 
    116 H116       20.1519  -31.4214  -42.4389 H         1 UNK         0.0612 
    117 H117       18.6039  -32.2186  -42.4676 H         1 UNK         0.0612 
@<TRIPOS>BOND
     1    1    2 1    
     2    1   62 1    
     3    1   63 1    
     4    1   64 1    
     5    2    3 2    
     6    2    4 am   BACKBONE|DICT|INTERRES
     7    4    5 1    
     8    4   65 1    
     9    5    6 1    
    10    5   25 1    
    11    5   66 1    
    12    6    7 1    
    13    6   67 1    
    14    6   68 1    
    15    7    8 1    
    16    8    9 1    
    17    8   69 1    
    18    8   70 1    
    19    9   10 ar   
    20    9   14 ar   
    21   10   11 ar   
    22   10   71 1    
    23   11   12 ar   
    24   11   61 1    
    25   12   13 ar   
    26   12   72 1    
    27   13   14 ar   
    28   13   15 1    
    29   14   73 1    
    30   15   16 1    
    31   15   74 1    
    32   15   75 1    
    33   16   17 1    
    34   17   18 1    
    35   17   76 1    
    36   17   77 1    
    37   18   19 1    
    38   18   27 1    
    39   18   78 1    
    40   19   20 am   BACKBONE|DICT|INTERRES
    41   19   79 1    
    42   20   21 2    
    43   20   22 1    
    44   22   23 1    
    45   22   24 1    
    46   22   80 1    
    47   23   81 1    
    48   23   82 1    
    49   23   83 1    
    50   24   25 am   BACKBONE|DICT|INTERRES
    51   24   84 1    
    52   25   26 2    
    53   27   28 2    
    54   27   29 am   BACKBONE|DICT|INTERRES
    55   29   30 1    
    56   29   85 1    
    57   30   31 1    
    58   30   32 1    
    59   30   86 1    
    60   31   87 1    
    61   31   88 1    
    62   31   89 1    
    63   32   33 2    
    64   32   34 am   BACKBONE|DICT|INTERRES
    65   34   35 1    
    66   34   90 1    
    67   35   36 1    
    68   35   37 1    
    69   35   91 1    
    70   36   92 1    
    71   36   93 1    
    72   36   94 1    
    73   37   38 2    
    74   37   39 am   BACKBONE|DICT|INTERRES
    75   39   40 1    
    76   39   95 1    
    77   40   41 1    
    78   40   42 1    
    79   40   96 1    
    80   41   97 1    
    81   41   98 1    
    82   41   99 1    
    83   42   43 2    
    84   42   44 am   BACKBONE|DICT|INTERRES
    85   44   45 1    
    86   44  100 1    
    87   45   46 1    
    88   45   47 1    
    89   45  101 1    
    90   46  102 1    
    91   46  103 1    
    92   46  104 1    
    93   47   48 2    
    94   47   49 am   BACKBONE|DICT|INTERRES
    95   49   50 1    
    96   49  105 1    
    97   50   51 1    
    98   50   52 1    
    99   50  106 1    
   100   51  107 1    
   101   51  108 1    
   102   51  109 1    
   103   52   53 2    
   104   52   54 am   BACKBONE|DICT|INTERRES
   105   54   55 1    
   106   54  110 1    
   107   55   56 1    
   108   55   59 1    
   109   55  111 1    
   110   56   57 am   BACKBONE|DICT|INTERRES
   111   56   58 2    
   112   57  112 1    
   113   57  113 1    
   114   59   60 1    
   115   59  114 1    
   116   59  115 1    
   117   60   61 1    
   118   61  116 1    
   119   61  117 1    
@<TRIPOS>SUBSTRUCTURE
     1 UNK         1 GROUP             0       ****    0 ROOT    
