@<TRIPOS>MOLECULE
3R8
117   119    1
SMALL
USER_CHARGES


@<TRIPOS>ATOM
      1 CA         15.2027  -29.2419  -39.6139 C.3       0 UNK        -0.2013 
      2 C          15.5605  -28.5417  -40.9161 C.2       0 UNK         0.4866 
      3 O          15.6839  -27.3171  -40.9374 O.2       0 UNK        -0.5176 
      4 N          15.7346  -29.3052  -42.0002 N.am      1 UNK        -0.4884 
      5 CA         16.0994  -28.8026  -43.3196 C.3       1 UNK         0.0853 
      6 C6         14.8896  -28.1646  -44.0513 C.3       10 UNK        -0.0849 
      7 S7         15.3408  -27.1962  -45.5284 S.3       10 UNK        -0.2776 
      8 C8         15.9935  -25.6572  -44.7978 C.3       10 UNK         0.0316 
      9 C9         17.5091  -25.7105  -44.6689 C.ar      10 UNK        -0.0863 
     10 C10        18.1258  -25.7936  -43.4162 C.ar      10 UNK        -0.1009 
     11 C11        19.5181  -25.8758  -43.3177 C.ar      10 UNK        -0.0712 
     12 C12        20.2959  -25.8528  -44.4813 C.ar      10 UNK        -0.0894 
     13 C13        19.6908  -25.7487  -45.7372 C.ar      10 UNK        -0.0745 
     14 C14        18.2984  -25.6731  -45.8210 C.ar      10 UNK        -0.0972 
     15 C15        20.5248  -25.6938  -47.0093 C.3       10 UNK         0.0209 
     16 S16        20.2559  -27.1684  -48.0445 S.3       10 UNK        -0.2568 
     17 C17        21.8230  -28.0786  -47.8397 C.3       10 UNK        -0.0983 
     18 CA         21.9352  -28.8866  -46.5177 C.3       3 UNK         0.0876 
     19 N          20.7343  -29.7007  -46.2688 N.am      3 UNK        -0.4424 
     20 C          20.3387  -30.1608  -45.0777 C.2       2 UNK         0.4918 
     21 O          21.0268  -30.0867  -44.0610 O.2       2 UNK        -0.4875 
     22 CA         18.9467  -30.7923  -44.9949 C.3       2 UNK         0.0481 
     23 CB         19.0062  -32.1803  -44.3231 C.3       2 UNK        -0.1831 
     24 N          18.1015  -29.8654  -44.2457 N.am      2 UNK        -0.4498 
     25 C          16.7724  -29.9424  -44.1011 C.2       1 UNK         0.5027 
     26 O          16.0813  -30.8668  -44.5345 O.2       1 UNK        -0.4969 
     27 C          23.2700  -29.6768  -46.4496 C.2       3 UNK         0.5005 
     28 O          24.1906  -29.3838  -47.2161 O.2       3 UNK        -0.5279 
     29 N          23.3681  -30.6672  -45.5532 N.am      4 UNK        -0.4463 
     30 CA         24.5724  -31.4680  -45.3165 C.3       4 UNK         0.0283 
     31 CB         24.1929  -32.7571  -44.5690 C.3       4 UNK        -0.1875 
     32 C          25.6416  -30.6775  -44.5441 C.2       4 UNK         0.4949 
     33 O          26.8141  -30.7070  -44.9177 O.2       4 UNK        -0.5039 
     34 N          25.2007  -29.9714  -43.4989 N.am      5 UNK        -0.4663 
     35 CA         25.9660  -29.0934  -42.6179 C.3       5 UNK         0.0242 
     36 CB         26.9912  -29.8914  -41.7870 C.3       5 UNK        -0.1982 
     37 C          24.9491  -28.4163  -41.6948 C.2       5 UNK         0.5017 
     38 O          23.8978  -29.0061  -41.4404 O.2       5 UNK        -0.5012 
     39 N          25.2787  -27.2271  -41.1735 N.am      6 UNK        -0.4439 
     40 CA         24.3953  -26.4109  -40.3251 C.3       6 UNK         0.0297 
     41 CB         25.0950  -25.0843  -39.9883 C.3       6 UNK        -0.2006 
     42 C          23.9102  -27.1034  -39.0351 C.2       6 UNK         0.4892 
     43 O          22.8065  -26.8155  -38.5720 O.2       6 UNK        -0.5089 
     44 N          24.7322  -28.0100  -38.4912 N.am      7 UNK        -0.4243 
     45 CA         24.4078  -28.8364  -37.3265 C.3       7 UNK         0.0196 
     46 CB         25.7132  -29.1678  -36.5833 C.3       7 UNK        -0.2007 
     47 C          23.6577  -30.1328  -37.6899 C.2       7 UNK         0.5020 
     48 O          23.1550  -30.7989  -36.7846 O.2       7 UNK        -0.5147 
     49 N          23.6126  -30.4926  -38.9800 N.am      8 UNK        -0.4734 
     50 CA         23.0557  -31.7527  -39.4812 C.3       8 UNK         0.0238 
     51 CB         24.0392  -32.3521  -40.5022 C.3       8 UNK        -0.1912 
     52 C          21.6575  -31.5928  -40.1030 C.2       8 UNK         0.5038 
     53 O          21.0822  -32.6019  -40.5141 O.2       8 UNK        -0.5046 
     54 N          21.1376  -30.3583  -40.1726 N.am      9 UNK        -0.4200 
     55 CA         19.8203  -30.0268  -40.7436 C.3       9 UNK         0.0839 
     56 C          18.6327  -30.7431  -40.0443 C.2       9 UNK         0.5513 
     57 N          18.6449  -30.8734  -38.7230 N.am      9 UNK        -0.7519 
     58 O          17.7046  -31.1969  -40.7063 O.2       9 UNK        -0.4960 
     59 C59        19.5711  -28.4952  -40.8165 C.3       10 UNK        -0.0876 
     60 S60        20.9136  -27.6067  -41.6719 S.3       10 UNK        -0.2414 
     61 C61        20.1915  -25.9642  -41.9567 C.3       10 UNK         0.0169 
     62 H62        15.9693  -29.0504  -38.8635 H         1 UNK         0.0903 
     63 H63        14.2518  -28.8687  -39.2350 H         1 UNK         0.0903 
     64 H64        15.1180  -30.3209  -39.7426 H         1 UNK         0.0903 
     65 H65        15.6940  -30.3146  -41.9215 H         1 UNK         0.3096 
     66 H66        16.8489  -28.0309  -43.1671 H         1 UNK         0.1121 
     67 H67        14.1715  -28.9323  -44.3451 H         1 UNK         0.0849 
     68 H68        14.3437  -27.5029  -43.3773 H         1 UNK         0.0849 
     69 H69        15.7220  -24.8198  -45.4422 H         1 UNK         0.0865 
     70 H70        15.5218  -25.4621  -43.8332 H         1 UNK         0.0865 
     71 H71        17.5221  -25.8061  -42.5181 H         1 UNK         0.1346 
     72 H72        21.3730  -25.9107  -44.4027 H         1 UNK         0.1412 
     73 H73        17.8254  -25.6009  -46.7914 H         1 UNK         0.1426 
     74 H74        21.5843  -25.5755  -46.7781 H         1 UNK         0.0716 
     75 H75        20.2390  -24.8096  -47.5809 H         1 UNK         0.0716 
     76 H76        22.6466  -27.3677  -47.9307 H         1 UNK         0.0695 
     77 H77        21.9139  -28.7507  -48.6952 H         1 UNK         0.0695 
     78 H78        21.9936  -28.1576  -45.7063 H         1 UNK         0.0983 
     79 H79        20.1160  -29.8073  -47.0600 H         1 UNK         0.3095 
     80 H80        18.5406  -30.9018  -46.0025 H         1 UNK         0.0454 
     81 H81        19.3316  -32.1176  -43.2844 H         1 UNK         0.0851 
     82 H82        19.7070  -32.8341  -44.8434 H         1 UNK         0.0851 
     83 H83        18.0368  -32.6774  -44.3365 H         1 UNK         0.0851 
     84 H84        18.5987  -29.0757  -43.8538 H         1 UNK         0.2976 
     85 H85        22.5837  -30.7929  -44.9196 H         1 UNK         0.3116 
     86 H86        24.9977  -31.7509  -46.2820 H         1 UNK         0.0646 
     87 H87        23.5243  -33.3769  -45.1665 H         1 UNK         0.0847 
     88 H88        25.0775  -33.3562  -44.3483 H         1 UNK         0.0847 
     89 H89        23.6945  -32.5481  -43.6221 H         1 UNK         0.0847 
     90 H90        24.2141  -29.9967  -43.2651 H         1 UNK         0.3040 
     91 H91        26.4713  -28.3373  -43.2220 H         1 UNK         0.1015 
     92 H92        26.5117  -30.6716  -41.1951 H         1 UNK         0.0786 
     93 H93        27.5277  -29.2407  -41.0954 H         1 UNK         0.0786 
     94 H94        27.7405  -30.3670  -42.4192 H         1 UNK         0.0786 
     95 H95        26.1724  -26.8219  -41.4146 H         1 UNK         0.3172 
     96 H96        23.5071  -26.1806  -40.9165 H         1 UNK         0.0595 
     97 H97        26.0171  -25.2439  -39.4279 H         1 UNK         0.0839 
     98 H98        24.4509  -24.4474  -39.3800 H         1 UNK         0.0839 
     99 H99        25.3405  -24.5230  -40.8899 H         1 UNK         0.0839 
    100 H100       25.6233  -28.1760  -38.9360 H         1 UNK         0.2998 
    101 H101       23.7664  -28.2684  -36.6487 H         1 UNK         0.0822 
    102 H102       25.5141  -29.7518  -35.6835 H         1 UNK         0.0787 
    103 H103       26.3957  -29.7493  -37.2044 H         1 UNK         0.0787 
    104 H104       26.2323  -28.2618  -36.2697 H         1 UNK         0.0787 
    105 H105       23.9611  -29.8546  -39.6896 H         1 UNK         0.3055 
    106 H106       22.9513  -32.4670  -38.6613 H         1 UNK         0.1106 
    107 H107       25.0206  -32.5171  -40.0578 H         1 UNK         0.0828 
    108 H108       23.6866  -33.3166  -40.8700 H         1 UNK         0.0828 
    109 H109       24.1668  -31.7019  -41.3669 H         1 UNK         0.0828 
    110 H110       21.7020  -29.5785  -39.8690 H         1 UNK         0.2931 
    111 H111       19.8368  -30.3954  -41.7685 H         1 UNK         0.0412 
    112 H112       17.8849  -31.3537  -38.2680 H         1 UNK         0.3472 
    113 H113       19.4166  -30.5215  -38.1789 H         1 UNK         0.3472 
    114 H114       18.6349  -28.2868  -41.3362 H         1 UNK         0.0970 
    115 H115       19.4682  -28.0746  -39.8145 H         1 UNK         0.0970 
    116 H116       20.9895  -25.2221  -41.9071 H         1 UNK         0.0612 
    117 H117       19.4965  -25.7197  -41.1518 H         1 UNK         0.0612 
@<TRIPOS>BOND
     1    1    2 1    
     2    1   62 1    
     3    1   63 1    
     4    1   64 1    
     5    2    3 2    
     6    2    4 am   BACKBONE|DICT|INTERRES
     7    4    5 1    
     8    4   65 1    
     9    5    6 1    
    10    5   25 1    
    11    5   66 1    
    12    6    7 1    
    13    6   67 1    
    14    6   68 1    
    15    7    8 1    
    16    8    9 1    
    17    8   69 1    
    18    8   70 1    
    19    9   10 ar   
    20    9   14 ar   
    21   10   11 ar   
    22   10   71 1    
    23   11   12 ar   
    24   11   61 1    
    25   12   13 ar   
    26   12   72 1    
    27   13   14 ar   
    28   13   15 1    
    29   14   73 1    
    30   15   16 1    
    31   15   74 1    
    32   15   75 1    
    33   16   17 1    
    34   17   18 1    
    35   17   76 1    
    36   17   77 1    
    37   18   19 1    
    38   18   27 1    
    39   18   78 1    
    40   19   20 am   BACKBONE|DICT|INTERRES
    41   19   79 1    
    42   20   21 2    
    43   20   22 1    
    44   22   23 1    
    45   22   24 1    
    46   22   80 1    
    47   23   81 1    
    48   23   82 1    
    49   23   83 1    
    50   24   25 am   BACKBONE|DICT|INTERRES
    51   24   84 1    
    52   25   26 2    
    53   27   28 2    
    54   27   29 am   BACKBONE|DICT|INTERRES
    55   29   30 1    
    56   29   85 1    
    57   30   31 1    
    58   30   32 1    
    59   30   86 1    
    60   31   87 1    
    61   31   88 1    
    62   31   89 1    
    63   32   33 2    
    64   32   34 am   BACKBONE|DICT|INTERRES
    65   34   35 1    
    66   34   90 1    
    67   35   36 1    
    68   35   37 1    
    69   35   91 1    
    70   36   92 1    
    71   36   93 1    
    72   36   94 1    
    73   37   38 2    
    74   37   39 am   BACKBONE|DICT|INTERRES
    75   39   40 1    
    76   39   95 1    
    77   40   41 1    
    78   40   42 1    
    79   40   96 1    
    80   41   97 1    
    81   41   98 1    
    82   41   99 1    
    83   42   43 2    
    84   42   44 am   BACKBONE|DICT|INTERRES
    85   44   45 1    
    86   44  100 1    
    87   45   46 1    
    88   45   47 1    
    89   45  101 1    
    90   46  102 1    
    91   46  103 1    
    92   46  104 1    
    93   47   48 2    
    94   47   49 am   BACKBONE|DICT|INTERRES
    95   49   50 1    
    96   49  105 1    
    97   50   51 1    
    98   50   52 1    
    99   50  106 1    
   100   51  107 1    
   101   51  108 1    
   102   51  109 1    
   103   52   53 2    
   104   52   54 am   BACKBONE|DICT|INTERRES
   105   54   55 1    
   106   54  110 1    
   107   55   56 1    
   108   55   59 1    
   109   55  111 1    
   110   56   57 am   BACKBONE|DICT|INTERRES
   111   56   58 2    
   112   57  112 1    
   113   57  113 1    
   114   59   60 1    
   115   59  114 1    
   116   59  115 1    
   117   60   61 1    
   118   61  116 1    
   119   61  117 1    
@<TRIPOS>SUBSTRUCTURE
     1 UNK         1 GROUP             0       ****    0 ROOT    
