@<TRIPOS>MOLECULE
3R8
117   119    1
SMALL
USER_CHARGES


@<TRIPOS>ATOM
      1 CA         15.5604  -21.9672  -46.7610 C.3       0 UNK        -0.2013 
      2 C          16.7595  -22.8870  -46.9361 C.2       0 UNK         0.4866 
      3 O          17.7733  -22.4701  -47.4964 O.2       0 UNK        -0.5176 
      4 N          16.6515  -24.1366  -46.4635 N.am      1 UNK        -0.4884 
      5 CA         17.7110  -25.1528  -46.5366 C.3       1 UNK         0.0853 
      6 C6         17.1408  -26.5739  -46.2726 C.3       10 UNK        -0.0849 
      7 S7         18.0753  -27.9011  -47.1113 S.3       10 UNK        -0.2776 
      8 C8         19.2610  -28.4303  -45.8312 C.3       10 UNK         0.0316 
      9 C9         18.7469  -29.5748  -44.9714 C.ar      10 UNK        -0.0863 
     10 C10        19.2076  -30.8764  -45.1921 C.ar      10 UNK        -0.1009 
     11 C11        18.8493  -31.9143  -44.3260 C.ar      10 UNK        -0.0712 
     12 C12        17.9944  -31.6469  -43.2520 C.ar      10 UNK        -0.0894 
     13 C13        17.4990  -30.3567  -43.0412 C.ar      10 UNK        -0.0745 
     14 C14        17.8783  -29.3265  -43.9049 C.ar      10 UNK        -0.0972 
     15 C15        16.5578  -30.0786  -41.8782 C.3       10 UNK         0.0209 
     16 S16        17.4467  -29.4305  -40.4263 S.3       10 UNK        -0.2568 
     17 C17        17.5537  -27.6436  -40.7905 C.3       10 UNK        -0.0983 
     18 CA         18.9514  -27.1878  -41.2830 C.3       3 UNK         0.0876 
     19 N          18.8584  -25.9118  -42.0094 N.am      3 UNK        -0.4424 
     20 C          19.8697  -25.2586  -42.6008 C.2       2 UNK         0.4918 
     21 O          21.0369  -25.6508  -42.5922 O.2       2 UNK        -0.4875 
     22 CA         19.4869  -23.9451  -43.3069 C.3       2 UNK         0.0481 
     23 CB         20.7107  -23.0906  -43.7028 C.3       2 UNK        -0.1831 
     24 N          18.5966  -24.1990  -44.4471 N.am      2 UNK        -0.4498 
     25 C          18.8935  -24.8406  -45.5904 C.2       1 UNK         0.5027 
     26 O          20.0285  -25.1936  -45.9104 O.2       1 UNK        -0.4969 
     27 C          19.9907  -27.1769  -40.1382 C.2       3 UNK         0.5005 
     28 O          20.6485  -28.1908  -39.9065 O.2       3 UNK        -0.5279 
     29 N          20.1794  -26.0163  -39.4918 N.am      4 UNK        -0.4463 
     30 CA         21.1976  -25.7843  -38.4611 C.3       4 UNK         0.0283 
     31 CB         21.0125  -24.3745  -37.8772 C.3       4 UNK        -0.1875 
     32 C          22.6490  -25.9746  -38.9479 C.2       4 UNK         0.4949 
     33 O          23.5133  -26.2944  -38.1317 O.2       4 UNK        -0.5039 
     34 N          22.8927  -25.7872  -40.2529 N.am      5 UNK        -0.4663 
     35 CA         24.1910  -26.0047  -40.8944 C.3       5 UNK         0.0242 
     36 CB         24.4049  -24.9138  -41.9575 C.3       5 UNK        -0.1982 
     37 C          24.3074  -27.4012  -41.5312 C.2       5 UNK         0.5017 
     38 O          25.4155  -27.7988  -41.8936 O.2       5 UNK        -0.5012 
     39 N          23.1915  -28.1332  -41.6613 N.am      6 UNK        -0.4439 
     40 CA         23.1016  -29.4355  -42.3280 C.3       6 UNK         0.0297 
     41 CB         21.6834  -29.6109  -42.8990 C.3       6 UNK        -0.2006 
     42 C          23.5097  -30.5960  -41.4010 C.2       6 UNK         0.4892 
     43 O          22.7925  -31.5924  -41.2996 O.2       6 UNK        -0.5089 
     44 N          24.6752  -30.4672  -40.7531 N.am      7 UNK        -0.4243 
     45 CA         25.2316  -31.4295  -39.7926 C.3       7 UNK         0.0196 
     46 CB         26.5124  -30.8384  -39.1818 C.3       7 UNK        -0.2007 
     47 C          25.5064  -32.8314  -40.3723 C.2       7 UNK         0.5020 
     48 O          25.5987  -33.7933  -39.6097 O.2       7 UNK        -0.5147 
     49 N          25.6212  -32.9266  -41.7029 N.am      8 UNK        -0.4734 
     50 CA         25.7952  -34.1733  -42.4474 C.3       8 UNK         0.0238 
     51 CB         26.3215  -33.8378  -43.8532 C.3       8 UNK        -0.1912 
     52 C          24.5209  -35.0349  -42.5469 C.2       8 UNK         0.5038 
     53 O          24.6438  -36.2089  -42.9011 O.2       8 UNK        -0.5046 
     54 N          23.3375  -34.4674  -42.2696 N.am      9 UNK        -0.4200 
     55 CA         22.0436  -35.1556  -42.4240 C.3       9 UNK         0.0839 
     56 C          20.9657  -34.7849  -41.3682 C.2       9 UNK         0.5513 
     57 N          21.1019  -33.7076  -40.6070 N.am      9 UNK        -0.7519 
     58 O          19.9892  -35.5148  -41.2172 O.2       9 UNK        -0.4960 
     59 C59        21.5100  -35.0768  -43.8808 C.3       10 UNK        -0.0876 
     60 S60        21.2116  -33.3635  -44.4416 S.3       10 UNK        -0.2414 
     61 C61        19.3925  -33.3209  -44.5383 C.3       10 UNK         0.0169 
     62 H62        14.7331  -22.4650  -46.2555 H         1 UNK         0.0903 
     63 H63        15.8406  -21.0936  -46.1730 H         1 UNK         0.0903 
     64 H64        15.2061  -21.6242  -47.7327 H         1 UNK         0.0903 
     65 H65        15.7867  -24.4260  -46.0272 H         1 UNK         0.3096 
     66 H66        18.1054  -25.1248  -47.5556 H         1 UNK         0.1121 
     67 H67        17.0425  -26.7763  -45.2066 H         1 UNK         0.0849 
     68 H68        16.1260  -26.6402  -46.6687 H         1 UNK         0.0849 
     69 H69        20.1870  -28.7255  -46.3271 H         1 UNK         0.0865 
     70 H70        19.5329  -27.5990  -45.1827 H         1 UNK         0.0865 
     71 H71        19.8836  -31.0780  -46.0119 H         1 UNK         0.1346 
     72 H72        17.7161  -32.4433  -42.5751 H         1 UNK         0.1412 
     73 H73        17.5183  -28.3259  -43.7223 H         1 UNK         0.1426 
     74 H74        16.0503  -30.9994  -41.5865 H         1 UNK         0.0716 
     75 H75        15.7690  -29.3891  -42.1822 H         1 UNK         0.0716 
     76 H76        17.2599  -27.0909  -39.8960 H         1 UNK         0.0695 
     77 H77        16.7952  -27.4039  -41.5368 H         1 UNK         0.0695 
     78 H78        19.3127  -27.9158  -42.0103 H         1 UNK         0.0983 
     79 H79        17.9372  -25.5019  -42.0610 H         1 UNK         0.3095 
     80 H80        18.9078  -23.3603  -42.5906 H         1 UNK         0.0454 
     81 H81        21.2876  -22.8114  -42.8204 H         1 UNK         0.0851 
     82 H82        21.3897  -23.6218  -44.3701 H         1 UNK         0.0851 
     83 H83        20.4074  -22.1684  -44.1980 H         1 UNK         0.0851 
     84 H84        17.6318  -23.9287  -44.3154 H         1 UNK         0.2976 
     85 H85        19.6021  -25.2281  -39.7467 H         1 UNK         0.3116 
     86 H86        21.0266  -26.5097  -37.6630 H         1 UNK         0.0646 
     87 H87        21.7381  -24.1822  -37.0853 H         1 UNK         0.0847 
     88 H88        20.0215  -24.2504  -37.4404 H         1 UNK         0.0847 
     89 H89        21.1472  -23.6017  -38.6351 H         1 UNK         0.0847 
     90 H90        22.1247  -25.5555  -40.8747 H         1 UNK         0.3040 
     91 H91        24.9918  -25.9181  -40.1565 H         1 UNK         0.1015 
     92 H92        24.3591  -23.9173  -41.5180 H         1 UNK         0.0786 
     93 H93        23.6559  -24.9661  -42.7487 H         1 UNK         0.0786 
     94 H94        25.3835  -25.0142  -42.4292 H         1 UNK         0.0786 
     95 H95        22.3377  -27.7888  -41.2399 H         1 UNK         0.3172 
     96 H96        23.7938  -29.4430  -43.1725 H         1 UNK         0.0595 
     97 H97        21.3909  -28.7618  -43.5165 H         1 UNK         0.0839 
     98 H98        20.9387  -29.7305  -42.1115 H         1 UNK         0.0839 
     99 H99        21.6274  -30.5010  -43.5257 H         1 UNK         0.0839 
    100 H100       25.2118  -29.6244  -40.9275 H         1 UNK         0.2998 
    101 H101       24.4963  -31.5543  -38.9950 H         1 UNK         0.0822 
    102 H102       27.2766  -30.6636  -39.9404 H         1 UNK         0.0787 
    103 H103       26.9390  -31.5129  -38.4378 H         1 UNK         0.0787 
    104 H104       26.3129  -29.8910  -38.6805 H         1 UNK         0.0787 
    105 H105       25.5341  -32.0796  -42.2453 H         1 UNK         0.3055 
    106 H106       26.5483  -34.7759  -41.9343 H         1 UNK         0.1106 
    107 H107       25.6094  -33.2344  -44.4178 H         1 UNK         0.0828 
    108 H108       27.2640  -33.2919  -43.8059 H         1 UNK         0.0828 
    109 H109       26.5057  -34.7460  -44.4291 H         1 UNK         0.0828 
    110 H110       23.2974  -33.4977  -41.9785 H         1 UNK         0.2931 
    111 H111       22.2233  -36.2136  -42.2224 H         1 UNK         0.0412 
    112 H112       20.3907  -33.5077  -39.9229 H         1 UNK         0.3472 
    113 H113       21.8207  -33.0120  -40.7917 H         1 UNK         0.3472 
    114 H114       20.6055  -35.6771  -43.9931 H         1 UNK         0.0970 
    115 H115       22.2364  -35.5266  -44.5590 H         1 UNK         0.0970 
    116 H116       18.9733  -33.9988  -43.7932 H         1 UNK         0.0612 
    117 H117       19.0750  -33.6932  -45.5131 H         1 UNK         0.0612 
@<TRIPOS>BOND
     1    1    2 1    
     2    1   62 1    
     3    1   63 1    
     4    1   64 1    
     5    2    3 2    
     6    2    4 am   BACKBONE|DICT|INTERRES
     7    4    5 1    
     8    4   65 1    
     9    5    6 1    
    10    5   25 1    
    11    5   66 1    
    12    6    7 1    
    13    6   67 1    
    14    6   68 1    
    15    7    8 1    
    16    8    9 1    
    17    8   69 1    
    18    8   70 1    
    19    9   10 ar   
    20    9   14 ar   
    21   10   11 ar   
    22   10   71 1    
    23   11   12 ar   
    24   11   61 1    
    25   12   13 ar   
    26   12   72 1    
    27   13   14 ar   
    28   13   15 1    
    29   14   73 1    
    30   15   16 1    
    31   15   74 1    
    32   15   75 1    
    33   16   17 1    
    34   17   18 1    
    35   17   76 1    
    36   17   77 1    
    37   18   19 1    
    38   18   27 1    
    39   18   78 1    
    40   19   20 am   BACKBONE|DICT|INTERRES
    41   19   79 1    
    42   20   21 2    
    43   20   22 1    
    44   22   23 1    
    45   22   24 1    
    46   22   80 1    
    47   23   81 1    
    48   23   82 1    
    49   23   83 1    
    50   24   25 am   BACKBONE|DICT|INTERRES
    51   24   84 1    
    52   25   26 2    
    53   27   28 2    
    54   27   29 am   BACKBONE|DICT|INTERRES
    55   29   30 1    
    56   29   85 1    
    57   30   31 1    
    58   30   32 1    
    59   30   86 1    
    60   31   87 1    
    61   31   88 1    
    62   31   89 1    
    63   32   33 2    
    64   32   34 am   BACKBONE|DICT|INTERRES
    65   34   35 1    
    66   34   90 1    
    67   35   36 1    
    68   35   37 1    
    69   35   91 1    
    70   36   92 1    
    71   36   93 1    
    72   36   94 1    
    73   37   38 2    
    74   37   39 am   BACKBONE|DICT|INTERRES
    75   39   40 1    
    76   39   95 1    
    77   40   41 1    
    78   40   42 1    
    79   40   96 1    
    80   41   97 1    
    81   41   98 1    
    82   41   99 1    
    83   42   43 2    
    84   42   44 am   BACKBONE|DICT|INTERRES
    85   44   45 1    
    86   44  100 1    
    87   45   46 1    
    88   45   47 1    
    89   45  101 1    
    90   46  102 1    
    91   46  103 1    
    92   46  104 1    
    93   47   48 2    
    94   47   49 am   BACKBONE|DICT|INTERRES
    95   49   50 1    
    96   49  105 1    
    97   50   51 1    
    98   50   52 1    
    99   50  106 1    
   100   51  107 1    
   101   51  108 1    
   102   51  109 1    
   103   52   53 2    
   104   52   54 am   BACKBONE|DICT|INTERRES
   105   54   55 1    
   106   54  110 1    
   107   55   56 1    
   108   55   59 1    
   109   55  111 1    
   110   56   57 am   BACKBONE|DICT|INTERRES
   111   56   58 2    
   112   57  112 1    
   113   57  113 1    
   114   59   60 1    
   115   59  114 1    
   116   59  115 1    
   117   60   61 1    
   118   61  116 1    
   119   61  117 1    
@<TRIPOS>SUBSTRUCTURE
     1 UNK         1 GROUP             0       ****    0 ROOT    
