@<TRIPOS>MOLECULE
3R8
117   119    1
SMALL
USER_CHARGES


@<TRIPOS>ATOM
      1 CA         15.3409  -22.7799  -45.8909 C.3       0 UNK        -0.2013 
      2 C          16.0292  -23.7274  -44.9198 C.2       0 UNK         0.4866 
      3 O          16.0079  -23.4826  -43.7136 O.2       0 UNK        -0.5176 
      4 N          16.6406  -24.8006  -45.4423 N.am      1 UNK        -0.4884 
      5 CA         17.3507  -25.8529  -44.6986 C.3       1 UNK         0.0853 
      6 C6         16.4206  -26.7274  -43.8085 C.3       10 UNK        -0.0849 
      7 S7         15.2773  -27.7486  -44.7976 S.3       10 UNK        -0.2776 
      8 C8         15.6310  -29.4348  -44.1682 C.3       10 UNK         0.0316 
      9 C9         16.9806  -30.0458  -44.5647 C.ar      10 UNK        -0.0863 
     10 C10        17.4261  -31.1860  -43.8831 C.ar      10 UNK        -0.1009 
     11 C11        18.6218  -31.8175  -44.2428 C.ar      10 UNK        -0.0712 
     12 C12        19.4008  -31.2779  -45.2707 C.ar      10 UNK        -0.0894 
     13 C13        18.9700  -30.1471  -45.9692 C.ar      10 UNK        -0.0745 
     14 C14        17.7558  -29.5469  -45.6198 C.ar      10 UNK        -0.0972 
     15 C15        19.7629  -29.6310  -47.1636 C.3       10 UNK         0.0209 
     16 S16        20.1958  -27.8669  -47.0163 S.3       10 UNK        -0.2568 
     17 C17        21.9623  -27.8986  -46.5322 C.3       10 UNK        -0.0983 
     18 CA         22.2645  -27.2244  -45.1680 C.3       3 UNK         0.0876 
     19 N          21.5348  -25.9665  -45.0179 N.am      3 UNK        -0.4424 
     20 C          21.6851  -25.0511  -44.0536 C.2       2 UNK         0.4918 
     21 O          22.5469  -25.1087  -43.1765 O.2       2 UNK        -0.4875 
     22 CA         20.6353  -23.9198  -44.0426 C.3       2 UNK         0.0481 
     23 CB         21.1199  -22.7242  -44.8765 C.3       2 UNK        -0.1831 
     24 N          19.3206  -24.3664  -44.5338 N.am      2 UNK        -0.4498 
     25 C          18.5900  -25.3249  -43.9409 C.2       1 UNK         0.5027 
     26 O          18.9159  -25.8327  -42.8692 O.2       1 UNK        -0.4969 
     27 C          22.0740  -28.2072  -43.9942 C.2       3 UNK         0.5005 
     28 O          22.9785  -29.0073  -43.7548 O.2       3 UNK        -0.5279 
     29 N          20.9553  -28.1221  -43.2544 N.am      4 UNK        -0.4463 
     30 CA         20.6758  -28.9767  -42.0949 C.3       4 UNK         0.0283 
     31 CB         19.2407  -28.7526  -41.5966 C.3       4 UNK        -0.1875 
     32 C          21.6660  -28.7692  -40.9411 C.2       4 UNK         0.4949 
     33 O          21.9937  -29.7338  -40.2530 O.2       4 UNK        -0.5039 
     34 N          22.1423  -27.5287  -40.7656 N.am      5 UNK        -0.4663 
     35 CA         23.1609  -27.1748  -39.7759 C.3       5 UNK         0.0242 
     36 CB         23.1741  -25.6505  -39.5800 C.3       5 UNK        -0.1982 
     37 C          24.5580  -27.6841  -40.1661 C.2       5 UNK         0.5017 
     38 O          25.3234  -28.0757  -39.2855 O.2       5 UNK        -0.5012 
     39 N          24.8574  -27.6797  -41.4729 N.am      6 UNK        -0.4439 
     40 CA         26.1161  -28.1672  -42.0397 C.3       6 UNK         0.0297 
     41 CB         26.2930  -27.6125  -43.4629 C.3       6 UNK        -0.2006 
     42 C          26.1952  -29.7020  -42.0354 C.2       6 UNK         0.4892 
     43 O          27.2258  -30.2548  -41.6502 O.2       6 UNK        -0.5089 
     44 N          25.1040  -30.3580  -42.4525 N.am      7 UNK        -0.4243 
     45 CA         24.9692  -31.8160  -42.4914 C.3       7 UNK         0.0196 
     46 CB         23.8524  -32.1778  -43.4829 C.3       7 UNK        -0.2007 
     47 C          24.7012  -32.4503  -41.1134 C.2       7 UNK         0.5020 
     48 O          24.8620  -33.6637  -40.9801 O.2       7 UNK        -0.5147 
     49 N          24.2986  -31.6334  -40.1279 N.am      8 UNK        -0.4734 
     50 CA         23.9028  -31.9994  -38.7613 C.3       8 UNK         0.0238 
     51 CB         25.0946  -32.5817  -37.9713 C.3       8 UNK        -0.1912 
     52 C          22.6537  -32.9023  -38.7422 C.2       8 UNK         0.5038 
     53 O          22.6397  -33.9333  -38.0657 O.2       8 UNK        -0.5046 
     54 N          21.6347  -32.4961  -39.5081 N.am      9 UNK        -0.4200 
     55 CA         20.3345  -33.1707  -39.6222 C.3       9 UNK         0.0839 
     56 C          19.4982  -33.0541  -38.3198 C.2       9 UNK         0.5513 
     57 N          18.7138  -34.0728  -37.9956 N.am      9 UNK        -0.7519 
     58 O          19.5194  -32.0379  -37.6282 O.2       9 UNK        -0.4960 
     59 C59        19.5282  -32.6501  -40.8402 C.3       10 UNK        -0.0876 
     60 S60        20.4021  -32.9422  -42.4136 S.3       10 UNK        -0.2414 
     61 C61        19.0329  -33.1342  -43.5947 C.3       10 UNK         0.0169 
     62 H62        15.4355  -23.1127  -46.9244 H         1 UNK         0.0903 
     63 H63        14.2796  -22.7079  -45.6546 H         1 UNK         0.0903 
     64 H64        15.7752  -21.7834  -45.8144 H         1 UNK         0.0903 
     65 H65        16.6059  -24.9372  -46.4437 H         1 UNK         0.3096 
     66 H66        17.7750  -26.5100  -45.4582 H         1 UNK         0.1121 
     67 H67        15.8422  -26.1085  -43.1214 H         1 UNK         0.0849 
     68 H68        17.0005  -27.4012  -43.1784 H         1 UNK         0.0849 
     69 H69        15.5409  -29.4235  -43.0807 H         1 UNK         0.0865 
     70 H70        14.8443  -30.0984  -44.5297 H         1 UNK         0.0865 
     71 H71        16.8205  -31.6065  -43.0917 H         1 UNK         0.1346 
     72 H72        20.3211  -31.7701  -45.5546 H         1 UNK         0.1412 
     73 H73        17.4122  -28.7020  -46.1977 H         1 UNK         0.1426 
     74 H74        20.6587  -30.2294  -47.3332 H         1 UNK         0.0716 
     75 H75        19.1491  -29.7558  -48.0566 H         1 UNK         0.0716 
     76 H76        22.5055  -27.3635  -47.3126 H         1 UNK         0.0695 
     77 H77        22.3544  -28.9170  -46.5650 H         1 UNK         0.0695 
     78 H78        23.3257  -26.9664  -45.1614 H         1 UNK         0.0983 
     79 H79        20.7974  -25.8274  -45.6933 H         1 UNK         0.3095 
     80 H80        20.5144  -23.5896  -43.0088 H         1 UNK         0.0454 
     81 H81        20.4215  -21.8894  -44.8166 H         1 UNK         0.0851 
     82 H82        21.2435  -22.9852  -45.9283 H         1 UNK         0.0851 
     83 H83        22.0841  -22.3635  -44.5153 H         1 UNK         0.0851 
     84 H84        18.9884  -23.9700  -45.4017 H         1 UNK         0.2976 
     85 H85        20.2717  -27.4064  -43.4649 H         1 UNK         0.3116 
     86 H86        20.7644  -30.0128  -42.4254 H         1 UNK         0.0646 
     87 H87        18.5142  -28.9692  -42.3770 H         1 UNK         0.0847 
     88 H88        19.0092  -29.3960  -40.7491 H         1 UNK         0.0847 
     89 H89        19.0843  -27.7316  -41.2519 H         1 UNK         0.0847 
     90 H90        21.8230  -26.7939  -41.3828 H         1 UNK         0.3040 
     91 H91        22.8932  -27.6405  -38.8244 H         1 UNK         0.1015 
     92 H92        23.4266  -25.1251  -40.5020 H         1 UNK         0.0786 
     93 H93        23.9090  -25.3607  -38.8276 H         1 UNK         0.0786 
     94 H94        22.2040  -25.2859  -39.2414 H         1 UNK         0.0786 
     95 H95        24.1518  -27.3619  -42.1219 H         1 UNK         0.3172 
     96 H96        26.9365  -27.7868  -41.4271 H         1 UNK         0.0595 
     97 H97        25.5100  -27.9602  -44.1374 H         1 UNK         0.0839 
     98 H98        27.2478  -27.9282  -43.8857 H         1 UNK         0.0839 
     99 H99        26.2819  -26.5224  -43.4690 H         1 UNK         0.0839 
    100 H100       24.3121  -29.8226  -42.8069 H         1 UNK         0.2998 
    101 H101       25.9037  -32.2410  -42.8639 H         1 UNK         0.0822 
    102 H102       23.6873  -33.2554  -43.5214 H         1 UNK         0.0787 
    103 H103       22.9085  -31.7098  -43.2038 H         1 UNK         0.0787 
    104 H104       24.0979  -31.8487  -44.4927 H         1 UNK         0.0787 
    105 H105       24.1434  -30.6638  -40.3713 H         1 UNK         0.3055 
    106 H106       23.6085  -31.0701  -38.2701 H         1 UNK         0.1106 
    107 H107       25.9502  -31.9067  -37.9913 H         1 UNK         0.0828 
    108 H108       24.8286  -32.7368  -36.9251 H         1 UNK         0.0828 
    109 H109       25.4167  -33.5445  -38.3687 H         1 UNK         0.0828 
    110 H110       21.7218  -31.5996  -39.9776 H         1 UNK         0.2931 
    111 H111       20.5402  -34.2305  -39.7883 H         1 UNK         0.0412 
    112 H112       18.6834  -34.9082  -38.5599 H         1 UNK         0.3472 
    113 H113       18.1499  -34.0118  -37.1619 H         1 UNK         0.3472 
    114 H114       18.5545  -33.1412  -40.8812 H         1 UNK         0.0970 
    115 H115       19.3275  -31.5853  -40.7428 H         1 UNK         0.0970 
    116 H116       19.3561  -33.8223  -44.3770 H         1 UNK         0.0612 
    117 H117       18.1809  -33.6160  -43.1134 H         1 UNK         0.0612 
@<TRIPOS>BOND
     1    1    2 1    
     2    1   62 1    
     3    1   63 1    
     4    1   64 1    
     5    2    3 2    
     6    2    4 am   BACKBONE|DICT|INTERRES
     7    4    5 1    
     8    4   65 1    
     9    5    6 1    
    10    5   25 1    
    11    5   66 1    
    12    6    7 1    
    13    6   67 1    
    14    6   68 1    
    15    7    8 1    
    16    8    9 1    
    17    8   69 1    
    18    8   70 1    
    19    9   10 ar   
    20    9   14 ar   
    21   10   11 ar   
    22   10   71 1    
    23   11   12 ar   
    24   11   61 1    
    25   12   13 ar   
    26   12   72 1    
    27   13   14 ar   
    28   13   15 1    
    29   14   73 1    
    30   15   16 1    
    31   15   74 1    
    32   15   75 1    
    33   16   17 1    
    34   17   18 1    
    35   17   76 1    
    36   17   77 1    
    37   18   19 1    
    38   18   27 1    
    39   18   78 1    
    40   19   20 am   BACKBONE|DICT|INTERRES
    41   19   79 1    
    42   20   21 2    
    43   20   22 1    
    44   22   23 1    
    45   22   24 1    
    46   22   80 1    
    47   23   81 1    
    48   23   82 1    
    49   23   83 1    
    50   24   25 am   BACKBONE|DICT|INTERRES
    51   24   84 1    
    52   25   26 2    
    53   27   28 2    
    54   27   29 am   BACKBONE|DICT|INTERRES
    55   29   30 1    
    56   29   85 1    
    57   30   31 1    
    58   30   32 1    
    59   30   86 1    
    60   31   87 1    
    61   31   88 1    
    62   31   89 1    
    63   32   33 2    
    64   32   34 am   BACKBONE|DICT|INTERRES
    65   34   35 1    
    66   34   90 1    
    67   35   36 1    
    68   35   37 1    
    69   35   91 1    
    70   36   92 1    
    71   36   93 1    
    72   36   94 1    
    73   37   38 2    
    74   37   39 am   BACKBONE|DICT|INTERRES
    75   39   40 1    
    76   39   95 1    
    77   40   41 1    
    78   40   42 1    
    79   40   96 1    
    80   41   97 1    
    81   41   98 1    
    82   41   99 1    
    83   42   43 2    
    84   42   44 am   BACKBONE|DICT|INTERRES
    85   44   45 1    
    86   44  100 1    
    87   45   46 1    
    88   45   47 1    
    89   45  101 1    
    90   46  102 1    
    91   46  103 1    
    92   46  104 1    
    93   47   48 2    
    94   47   49 am   BACKBONE|DICT|INTERRES
    95   49   50 1    
    96   49  105 1    
    97   50   51 1    
    98   50   52 1    
    99   50  106 1    
   100   51  107 1    
   101   51  108 1    
   102   51  109 1    
   103   52   53 2    
   104   52   54 am   BACKBONE|DICT|INTERRES
   105   54   55 1    
   106   54  110 1    
   107   55   56 1    
   108   55   59 1    
   109   55  111 1    
   110   56   57 am   BACKBONE|DICT|INTERRES
   111   56   58 2    
   112   57  112 1    
   113   57  113 1    
   114   59   60 1    
   115   59  114 1    
   116   59  115 1    
   117   60   61 1    
   118   61  116 1    
   119   61  117 1    
@<TRIPOS>SUBSTRUCTURE
     1 UNK         1 GROUP             0       ****    0 ROOT    
