@<TRIPOS>MOLECULE
3R8
117   119    1
SMALL
USER_CHARGES


@<TRIPOS>ATOM
      1 CA         14.8538  -28.6989  -39.0033 C.3       0 UNK        -0.2013 
      2 C          14.9618  -27.9786  -40.3389 C.2       0 UNK         0.4866 
      3 O          13.9468  -27.5539  -40.8915 O.2       0 UNK        -0.5176 
      4 N          16.1834  -27.8440  -40.8601 N.am      1 UNK        -0.4884 
      5 CA         16.5021  -27.1932  -42.1310 C.3       1 UNK         0.0853 
      6 C6         16.4377  -28.2076  -43.3049 C.3       10 UNK        -0.0849 
      7 S7         16.0714  -27.4425  -44.9198 S.3       10 UNK        -0.2776 
      8 C8         15.6027  -28.9075  -45.9012 C.3       10 UNK         0.0316 
      9 C9         16.7247  -29.9356  -45.9432 C.ar      10 UNK        -0.0863 
     10 C10        16.6806  -31.0624  -45.1159 C.ar      10 UNK        -0.1009 
     11 C11        17.7454  -31.9725  -45.0896 C.ar      10 UNK        -0.0712 
     12 C12        18.8378  -31.7604  -45.9368 C.ar      10 UNK        -0.0894 
     13 C13        18.8798  -30.6557  -46.7925 C.ar      10 UNK        -0.0745 
     14 C14        17.8190  -29.7458  -46.7906 C.ar      10 UNK        -0.0972 
     15 C15        20.0692  -30.4516  -47.7222 C.3       10 UNK         0.0209 
     16 S16        20.9613  -28.8989  -47.3914 S.3       10 UNK        -0.2568 
     17 C17        21.5362  -29.1631  -45.6831 C.3       10 UNK        -0.0983 
     18 CA         22.3468  -27.9401  -45.1565 C.3       3 UNK         0.0876 
     19 N          21.6192  -27.1648  -44.1549 N.am      3 UNK        -0.4424 
     20 C          20.5646  -26.3817  -44.4027 C.2       2 UNK         0.4918 
     21 O          20.0872  -26.1919  -45.5220 O.2       2 UNK        -0.4875 
     22 CA         19.9015  -25.7127  -43.1963 C.3       2 UNK         0.0481 
     23 CB         19.8747  -24.1805  -43.3315 C.3       2 UNK        -0.1831 
     24 N          18.5417  -26.2352  -43.1163 N.am      2 UNK        -0.4498 
     25 C          17.8640  -26.4790  -41.9910 C.2       1 UNK         0.5027 
     26 O          18.2857  -26.1749  -40.8727 O.2       1 UNK        -0.4969 
     27 C          23.6895  -28.3776  -44.5496 C.2       3 UNK         0.5005 
     28 O          23.8149  -28.4591  -43.3201 O.2       3 UNK        -0.5279 
     29 N          24.6452  -28.6765  -45.4435 N.am      4 UNK        -0.4463 
     30 CA         26.0120  -29.1450  -45.1843 C.3       4 UNK         0.0283 
     31 CB         25.9835  -30.5850  -44.6264 C.3       4 UNK        -0.1875 
     32 C          26.8211  -28.1627  -44.3137 C.2       4 UNK         0.4949 
     33 O          26.5581  -26.9579  -44.3399 O.2       4 UNK        -0.5039 
     34 N          27.7818  -28.6801  -43.5377 N.am      5 UNK        -0.4663 
     35 CA         28.5701  -27.9317  -42.5536 C.3       5 UNK         0.0242 
     36 CB         29.8957  -28.6772  -42.3078 C.3       5 UNK        -0.1982 
     37 C          27.7648  -27.7005  -41.2584 C.2       5 UNK         0.5017 
     38 O          28.1980  -28.1119  -40.1808 O.2       5 UNK        -0.5012 
     39 N          26.5880  -27.0746  -41.4075 N.am      6 UNK        -0.4439 
     40 CA         25.5708  -26.8144  -40.3840 C.3       6 UNK         0.0297 
     41 CB         26.0796  -25.7844  -39.3529 C.3       6 UNK        -0.2006 
     42 C          25.0357  -28.1076  -39.7364 C.2       6 UNK         0.4892 
     43 O          24.9245  -28.1833  -38.5112 O.2       6 UNK        -0.5089 
     44 N          24.7051  -29.1024  -40.5747 N.am      7 UNK        -0.4243 
     45 CA         24.0671  -30.3531  -40.1459 C.3       7 UNK         0.0196 
     46 CB         24.2179  -31.4189  -41.2418 C.3       7 UNK        -0.2007 
     47 C          22.5842  -30.1471  -39.8001 C.2       7 UNK         0.5020 
     48 O          22.0583  -30.8407  -38.9290 O.2       7 UNK        -0.5147 
     49 N          21.9454  -29.1933  -40.4959 N.am      8 UNK        -0.4734 
     50 CA         20.5952  -28.6617  -40.2598 C.3       8 UNK         0.0238 
     51 CB         20.5659  -27.8791  -38.9297 C.3       8 UNK        -0.1912 
     52 C          19.4551  -29.6959  -40.3436 C.2       8 UNK         0.5038 
     53 O          18.3656  -29.4308  -39.8328 O.2       8 UNK        -0.5046 
     54 N          19.7141  -30.8431  -40.9868 N.am      9 UNK        -0.4200 
     55 CA         18.8195  -32.0102  -41.0425 C.3       9 UNK         0.0839 
     56 C          18.6331  -32.7252  -39.6661 C.2       9 UNK         0.5513 
     57 N          19.5368  -32.5479  -38.7075 N.am      9 UNK        -0.7519 
     58 O          17.6773  -33.4688  -39.4628 O.2       9 UNK        -0.4960 
     59 C59        17.4903  -31.6813  -41.7830 C.3       10 UNK        -0.0876 
     60 S60        16.7434  -33.0960  -42.6622 S.3       10 UNK        -0.2414 
     61 C61        17.7530  -33.2055  -44.1832 C.3       10 UNK         0.0169 
     62 H62        14.2125  -29.5745  -39.1000 H         1 UNK         0.0903 
     63 H63        15.8270  -29.0310  -38.6410 H         1 UNK         0.0903 
     64 H64        14.4198  -28.0379  -38.2536 H         1 UNK         0.0903 
     65 H65        16.9915  -28.2028  -40.3534 H         1 UNK         0.3096 
     66 H66        15.7683  -26.4023  -42.3031 H         1 UNK         0.1121 
     67 H67        15.6498  -28.9389  -43.1161 H         1 UNK         0.0849 
     68 H68        17.3628  -28.7813  -43.3791 H         1 UNK         0.0849 
     69 H69        14.6925  -29.3450  -45.4876 H         1 UNK         0.0865 
     70 H70        15.3547  -28.5929  -46.9160 H         1 UNK         0.0865 
     71 H71        15.8242  -31.2121  -44.4739 H         1 UNK         0.1346 
     72 H72        19.6595  -32.4638  -45.9332 H         1 UNK         0.1412 
     73 H73        17.8572  -28.8769  -47.4339 H         1 UNK         0.1426 
     74 H74        19.7134  -30.4392  -48.7532 H         1 UNK         0.0716 
     75 H75        20.7707  -31.2842  -47.6502 H         1 UNK         0.0716 
     76 H76        22.1191  -30.0869  -45.6805 H         1 UNK         0.0695 
     77 H77        20.6739  -29.3645  -45.0448 H         1 UNK         0.0695 
     78 H78        22.5867  -27.2584  -45.9761 H         1 UNK         0.0983 
     79 H79        22.0051  -27.2419  -43.2239 H         1 UNK         0.3095 
     80 H80        20.4600  -25.9707  -42.2948 H         1 UNK         0.0454 
     81 H81        19.3138  -23.8614  -44.2108 H         1 UNK         0.0851 
     82 H82        20.8847  -23.7796  -43.4239 H         1 UNK         0.0851 
     83 H83        19.4189  -23.7148  -42.4577 H         1 UNK         0.0851 
     84 H84        18.1353  -26.5194  -44.0014 H         1 UNK         0.2976 
     85 H85        24.4236  -28.5454  -46.4211 H         1 UNK         0.3116 
     86 H86        26.5115  -29.1734  -46.1537 H         1 UNK         0.0646 
     87 H87        25.6257  -30.6088  -43.5986 H         1 UNK         0.0847 
     88 H88        26.9726  -31.0434  -44.6459 H         1 UNK         0.0847 
     89 H89        25.3299  -31.2256  -45.2186 H         1 UNK         0.0847 
     90 H90        27.9241  -29.6799  -43.5555 H         1 UNK         0.3040 
     91 H91        28.8131  -26.9479  -42.9621 H         1 UNK         0.1015 
     92 H92        29.7303  -29.6717  -41.8913 H         1 UNK         0.0786 
     93 H93        30.5273  -28.1302  -41.6063 H         1 UNK         0.0786 
     94 H94        30.4643  -28.7901  -43.2310 H         1 UNK         0.0786 
     95 H95        26.3356  -26.8172  -42.3582 H         1 UNK         0.3172 
     96 H96        24.7240  -26.3655  -40.9055 H         1 UNK         0.0595 
     97 H97        26.9051  -26.1780  -38.7590 H         1 UNK         0.0839 
     98 H98        25.2867  -25.5028  -38.6588 H         1 UNK         0.0839 
     99 H99        26.4218  -24.8711  -39.8393 H         1 UNK         0.0839 
    100 H100       24.7662  -28.9372  -41.5746 H         1 UNK         0.2998 
    101 H101       24.5719  -30.7130  -39.2466 H         1 UNK         0.0822 
    102 H102       23.7575  -32.3594  -40.9358 H         1 UNK         0.0787 
    103 H103       23.7424  -31.1119  -42.1743 H         1 UNK         0.0787 
    104 H104       25.2679  -31.6278  -41.4461 H         1 UNK         0.0787 
    105 H105       22.4804  -28.7355  -41.2219 H         1 UNK         0.3055 
    106 H106       20.4020  -27.9535  -41.0637 H         1 UNK         0.1106 
    107 H107       20.7001  -28.5380  -38.0712 H         1 UNK         0.0828 
    108 H108       21.3491  -27.1218  -38.8973 H         1 UNK         0.0828 
    109 H109       19.6154  -27.3615  -38.7949 H         1 UNK         0.0828 
    110 H110       20.6425  -30.9787  -41.3579 H         1 UNK         0.2931 
    111 H111       19.3652  -32.7303  -41.6521 H         1 UNK         0.0412 
    112 H112       19.4148  -33.0183  -37.8248 H         1 UNK         0.3472 
    113 H113       20.3398  -31.9442  -38.8493 H         1 UNK         0.3472 
    114 H114       16.7541  -31.2711  -41.0894 H         1 UNK         0.0970 
    115 H115       17.6627  -30.8955  -42.5159 H         1 UNK         0.0970 
    116 H116       17.3966  -34.0562  -44.7652 H         1 UNK         0.0612 
    117 H117       18.7773  -33.4426  -43.8923 H         1 UNK         0.0612 
@<TRIPOS>BOND
     1    1    2 1    
     2    1   62 1    
     3    1   63 1    
     4    1   64 1    
     5    2    3 2    
     6    2    4 am   BACKBONE|DICT|INTERRES
     7    4    5 1    
     8    4   65 1    
     9    5    6 1    
    10    5   25 1    
    11    5   66 1    
    12    6    7 1    
    13    6   67 1    
    14    6   68 1    
    15    7    8 1    
    16    8    9 1    
    17    8   69 1    
    18    8   70 1    
    19    9   10 ar   
    20    9   14 ar   
    21   10   11 ar   
    22   10   71 1    
    23   11   12 ar   
    24   11   61 1    
    25   12   13 ar   
    26   12   72 1    
    27   13   14 ar   
    28   13   15 1    
    29   14   73 1    
    30   15   16 1    
    31   15   74 1    
    32   15   75 1    
    33   16   17 1    
    34   17   18 1    
    35   17   76 1    
    36   17   77 1    
    37   18   19 1    
    38   18   27 1    
    39   18   78 1    
    40   19   20 am   BACKBONE|DICT|INTERRES
    41   19   79 1    
    42   20   21 2    
    43   20   22 1    
    44   22   23 1    
    45   22   24 1    
    46   22   80 1    
    47   23   81 1    
    48   23   82 1    
    49   23   83 1    
    50   24   25 am   BACKBONE|DICT|INTERRES
    51   24   84 1    
    52   25   26 2    
    53   27   28 2    
    54   27   29 am   BACKBONE|DICT|INTERRES
    55   29   30 1    
    56   29   85 1    
    57   30   31 1    
    58   30   32 1    
    59   30   86 1    
    60   31   87 1    
    61   31   88 1    
    62   31   89 1    
    63   32   33 2    
    64   32   34 am   BACKBONE|DICT|INTERRES
    65   34   35 1    
    66   34   90 1    
    67   35   36 1    
    68   35   37 1    
    69   35   91 1    
    70   36   92 1    
    71   36   93 1    
    72   36   94 1    
    73   37   38 2    
    74   37   39 am   BACKBONE|DICT|INTERRES
    75   39   40 1    
    76   39   95 1    
    77   40   41 1    
    78   40   42 1    
    79   40   96 1    
    80   41   97 1    
    81   41   98 1    
    82   41   99 1    
    83   42   43 2    
    84   42   44 am   BACKBONE|DICT|INTERRES
    85   44   45 1    
    86   44  100 1    
    87   45   46 1    
    88   45   47 1    
    89   45  101 1    
    90   46  102 1    
    91   46  103 1    
    92   46  104 1    
    93   47   48 2    
    94   47   49 am   BACKBONE|DICT|INTERRES
    95   49   50 1    
    96   49  105 1    
    97   50   51 1    
    98   50   52 1    
    99   50  106 1    
   100   51  107 1    
   101   51  108 1    
   102   51  109 1    
   103   52   53 2    
   104   52   54 am   BACKBONE|DICT|INTERRES
   105   54   55 1    
   106   54  110 1    
   107   55   56 1    
   108   55   59 1    
   109   55  111 1    
   110   56   57 am   BACKBONE|DICT|INTERRES
   111   56   58 2    
   112   57  112 1    
   113   57  113 1    
   114   59   60 1    
   115   59  114 1    
   116   59  115 1    
   117   60   61 1    
   118   61  116 1    
   119   61  117 1    
@<TRIPOS>SUBSTRUCTURE
     1 UNK         1 GROUP             0       ****    0 ROOT    
