@<TRIPOS>MOLECULE
3R8
117   119    1
SMALL
USER_CHARGES


@<TRIPOS>ATOM
      1 CA         15.0936  -23.3352  -45.5436 C.3       0 UNK        -0.2013 
      2 C          15.2543  -24.7577  -45.0271 C.2       0 UNK         0.4866 
      3 O          14.3353  -25.2785  -44.3940 O.2       0 UNK        -0.5176 
      4 N          16.4118  -25.3764  -45.3025 N.am      1 UNK        -0.4884 
      5 CA         16.8258  -26.7299  -44.8957 C.3       1 UNK         0.0853 
      6 C6         15.8908  -27.8524  -45.4354 C.3       10 UNK        -0.0849 
      7 S7         16.0939  -28.0334  -47.2409 S.3       10 UNK        -0.2776 
      8 C8         17.0644  -29.5747  -47.3770 C.3       10 UNK         0.0316 
      9 C9         18.2834  -29.5948  -46.4610 C.ar      10 UNK        -0.0863 
     10 C10        18.3353  -30.4872  -45.3869 C.ar      10 UNK        -0.1009 
     11 C11        19.4423  -30.5122  -44.5352 C.ar      10 UNK        -0.0712 
     12 C12        20.5094  -29.6378  -44.7629 C.ar      10 UNK        -0.0894 
     13 C13        20.4609  -28.7280  -45.8234 C.ar      10 UNK        -0.0745 
     14 C14        19.3531  -28.7213  -46.6778 C.ar      10 UNK        -0.0972 
     15 C15        21.6011  -27.7493  -46.0534 C.3       10 UNK         0.0209 
     16 S16        21.3573  -26.2072  -45.1122 S.3       10 UNK        -0.2568 
     17 C17        22.3014  -26.5165  -43.5800 C.3       10 UNK        -0.0983 
     18 CA         21.4538  -26.3300  -42.2989 C.3       3 UNK         0.0876 
     19 N          20.3484  -27.2906  -42.2475 N.am      3 UNK        -0.4424 
     20 C          19.3907  -27.3574  -41.3125 C.2       2 UNK         0.4918 
     21 O          19.3766  -26.6874  -40.2792 O.2       2 UNK        -0.4875 
     22 CA         18.2214  -28.3033  -41.6482 C.3       2 UNK         0.0481 
     23 CB         17.1206  -28.3261  -40.5676 C.3       2 UNK        -0.1831 
     24 N          17.6642  -28.0062  -42.9774 N.am      2 UNK        -0.4498 
     25 C          17.1188  -26.8451  -43.3820 C.2       1 UNK         0.5027 
     26 O          16.9183  -25.8874  -42.6306 O.2       1 UNK        -0.4969 
     27 C          22.3687  -26.3410  -41.0573 C.2       3 UNK         0.5005 
     28 O          22.8803  -25.2838  -40.6843 O.2       3 UNK        -0.5279 
     29 N          22.5926  -27.5252  -40.4681 N.am      4 UNK        -0.4463 
     30 CA         23.4577  -27.8325  -39.3185 C.3       4 UNK         0.0283 
     31 CB         23.0756  -27.0269  -38.0619 C.3       4 UNK        -0.1875 
     32 C          24.9546  -27.7126  -39.6477 C.2       4 UNK         0.4949 
     33 O          25.6916  -28.6821  -39.4713 O.2       4 UNK        -0.5039 
     34 N          25.3664  -26.5538  -40.1778 N.am      5 UNK        -0.4663 
     35 CA         26.7128  -26.2867  -40.6964 C.3       5 UNK         0.0242 
     36 CB         26.8651  -24.7775  -40.9430 C.3       5 UNK        -0.1982 
     37 C          27.0317  -27.0776  -41.9794 C.2       5 UNK         0.5017 
     38 O          28.2028  -27.3418  -42.2515 O.2       5 UNK        -0.5012 
     39 N          25.9836  -27.4582  -42.7199 N.am      6 UNK        -0.4439 
     40 CA         26.0236  -28.3468  -43.8797 C.3       6 UNK         0.0297 
     41 CB         25.6788  -27.5522  -45.1539 C.3       6 UNK        -0.2006 
     42 C          25.0829  -29.5368  -43.6243 C.2       6 UNK         0.4892 
     43 O          24.2301  -29.8371  -44.4592 O.2       6 UNK        -0.5089 
     44 N          25.2722  -30.1691  -42.4557 N.am      7 UNK        -0.4243 
     45 CA         24.5301  -31.2919  -41.8696 C.3       7 UNK         0.0196 
     46 CB         24.3928  -32.4771  -42.8471 C.3       7 UNK        -0.2007 
     47 C          23.1615  -30.8859  -41.3002 C.2       7 UNK         0.5020 
     48 O          22.4785  -30.0130  -41.8390 O.2       7 UNK        -0.5147 
     49 N          22.7803  -31.5449  -40.1999 N.am      8 UNK        -0.4734 
     50 CA         21.4648  -31.4089  -39.5632 C.3       8 UNK         0.0238 
     51 CB         21.6317  -31.5273  -38.0390 C.3       8 UNK        -0.1912 
     52 C          20.4548  -32.4511  -40.0786 C.2       8 UNK         0.5038 
     53 O          19.2622  -32.3060  -39.8117 O.2       8 UNK        -0.5046 
     54 N          20.9453  -33.4673  -40.8049 N.am      9 UNK        -0.4200 
     55 CA         20.1842  -34.5802  -41.4015 C.3       9 UNK         0.0839 
     56 C          19.5609  -35.5688  -40.3679 C.2       9 UNK         0.5513 
     57 N          20.0003  -35.5796  -39.1149 N.am      9 UNK        -0.7519 
     58 O          18.6884  -36.3633  -40.7099 O.2       9 UNK        -0.4960 
     59 C59        19.1606  -34.1184  -42.4787 C.3       10 UNK        -0.0876 
     60 S60        19.9114  -33.1512  -43.8364 S.3       10 UNK        -0.2414 
     61 C61        19.4537  -31.4610  -43.3498 C.3       10 UNK         0.0169 
     62 H62        14.2311  -23.2722  -46.2066 H         1 UNK         0.0903 
     63 H63        14.9342  -22.6503  -44.7111 H         1 UNK         0.0903 
     64 H64        15.9704  -22.9982  -46.0963 H         1 UNK         0.0903 
     65 H65        17.1169  -24.8631  -45.8130 H         1 UNK         0.3096 
     66 H66        17.8056  -26.8619  -45.3560 H         1 UNK         0.1121 
     67 H67        16.0809  -28.8160  -44.9630 H         1 UNK         0.0849 
     68 H68        14.8439  -27.6392  -45.2197 H         1 UNK         0.0849 
     69 H69        16.4088  -30.4208  -47.1650 H         1 UNK         0.0865 
     70 H70        17.3905  -29.6977  -48.4108 H         1 UNK         0.0865 
     71 H71        17.5123  -31.1667  -45.2088 H         1 UNK         0.1346 
     72 H72        21.3755  -29.6604  -44.1149 H         1 UNK         0.1412 
     73 H73        19.3123  -28.0220  -47.5023 H         1 UNK         0.1426 
     74 H74        22.5576  -28.2092  -45.8044 H         1 UNK         0.0716 
     75 H75        21.6613  -27.4992  -47.1137 H         1 UNK         0.0716 
     76 H76        22.7285  -27.5204  -43.6023 H         1 UNK         0.0695 
     77 H77        23.1457  -25.8239  -43.5858 H         1 UNK         0.0695 
     78 H78        21.0001  -25.3371  -42.3335 H         1 UNK         0.0983 
     79 H79        20.2529  -27.8725  -43.0666 H         1 UNK         0.3095 
     80 H80        18.6438  -29.3063  -41.6978 H         1 UNK         0.0454 
     81 H81        16.6731  -27.3435  -40.4164 H         1 UNK         0.0851 
     82 H82        16.3231  -29.0212  -40.8292 H         1 UNK         0.0851 
     83 H83        17.5272  -28.6466  -39.6077 H         1 UNK         0.0851 
     84 H84        17.8135  -28.7232  -43.6750 H         1 UNK         0.2976 
     85 H85        22.2158  -28.3459  -40.9384 H         1 UNK         0.3116 
     86 H86        23.2728  -28.8813  -39.0859 H         1 UNK         0.0646 
     87 H87        23.6508  -27.3628  -37.1983 H         1 UNK         0.0847 
     88 H88        22.0208  -27.1536  -37.8182 H         1 UNK         0.0847 
     89 H89        23.2657  -25.9598  -38.1783 H         1 UNK         0.0847 
     90 H90        24.6639  -25.8272  -40.2998 H         1 UNK         0.3040 
     91 H91        27.4368  -26.5901  -39.9368 H         1 UNK         0.1015 
     92 H92        26.7165  -24.2090  -40.0247 H         1 UNK         0.0786 
     93 H93        26.1495  -24.4145  -41.6820 H         1 UNK         0.0786 
     94 H94        27.8644  -24.5403  -41.3112 H         1 UNK         0.0786 
     95 H95        25.0655  -27.2098  -42.3821 H         1 UNK         0.3172 
     96 H96        27.0245  -28.7650  -44.0052 H         1 UNK         0.0595 
     97 H97        24.6834  -27.1131  -45.1062 H         1 UNK         0.0839 
     98 H98        25.7099  -28.1944  -46.0351 H         1 UNK         0.0839 
     99 H99        26.3914  -26.7441  -45.3186 H         1 UNK         0.0839 
    100 H100       25.9842  -29.7851  -41.8486 H         1 UNK         0.2998 
    101 H101       25.1473  -31.6246  -41.0333 H         1 UNK         0.0822 
    102 H102       25.3524  -32.7405  -43.2920 H         1 UNK         0.0787 
    103 H103       24.0194  -33.3646  -42.3355 H         1 UNK         0.0787 
    104 H104       23.6947  -32.2592  -43.6565 H         1 UNK         0.0787 
    105 H105       23.4132  -32.2180  -39.7892 H         1 UNK         0.3055 
    106 H106       21.0461  -30.4236  -39.7814 H         1 UNK         0.1106 
    107 H107       20.6741  -31.4059  -37.5305 H         1 UNK         0.0828 
    108 H108       22.0339  -32.4983  -37.7478 H         1 UNK         0.0828 
    109 H109       22.2998  -30.7579  -37.6517 H         1 UNK         0.0828 
    110 H110       21.9394  -33.4903  -40.9694 H         1 UNK         0.2931 
    111 H111       20.9331  -35.1789  -41.9212 H         1 UNK         0.0412 
    112 H112       20.7246  -34.9454  -38.8200 H         1 UNK         0.3472 
    113 H113       19.5990  -36.2299  -38.4572 H         1 UNK         0.3472 
    114 H114       18.3438  -33.5612  -42.0182 H         1 UNK         0.0970 
    115 H115       18.6912  -34.9874  -42.9432 H         1 UNK         0.0970 
    116 H116       20.1506  -31.1070  -42.5914 H         1 UNK         0.0612 
    117 H117       18.4655  -31.4603  -42.8880 H         1 UNK         0.0612 
@<TRIPOS>BOND
     1    1    2 1    
     2    1   62 1    
     3    1   63 1    
     4    1   64 1    
     5    2    3 2    
     6    2    4 am   BACKBONE|DICT|INTERRES
     7    4    5 1    
     8    4   65 1    
     9    5    6 1    
    10    5   25 1    
    11    5   66 1    
    12    6    7 1    
    13    6   67 1    
    14    6   68 1    
    15    7    8 1    
    16    8    9 1    
    17    8   69 1    
    18    8   70 1    
    19    9   10 ar   
    20    9   14 ar   
    21   10   11 ar   
    22   10   71 1    
    23   11   12 ar   
    24   11   61 1    
    25   12   13 ar   
    26   12   72 1    
    27   13   14 ar   
    28   13   15 1    
    29   14   73 1    
    30   15   16 1    
    31   15   74 1    
    32   15   75 1    
    33   16   17 1    
    34   17   18 1    
    35   17   76 1    
    36   17   77 1    
    37   18   19 1    
    38   18   27 1    
    39   18   78 1    
    40   19   20 am   BACKBONE|DICT|INTERRES
    41   19   79 1    
    42   20   21 2    
    43   20   22 1    
    44   22   23 1    
    45   22   24 1    
    46   22   80 1    
    47   23   81 1    
    48   23   82 1    
    49   23   83 1    
    50   24   25 am   BACKBONE|DICT|INTERRES
    51   24   84 1    
    52   25   26 2    
    53   27   28 2    
    54   27   29 am   BACKBONE|DICT|INTERRES
    55   29   30 1    
    56   29   85 1    
    57   30   31 1    
    58   30   32 1    
    59   30   86 1    
    60   31   87 1    
    61   31   88 1    
    62   31   89 1    
    63   32   33 2    
    64   32   34 am   BACKBONE|DICT|INTERRES
    65   34   35 1    
    66   34   90 1    
    67   35   36 1    
    68   35   37 1    
    69   35   91 1    
    70   36   92 1    
    71   36   93 1    
    72   36   94 1    
    73   37   38 2    
    74   37   39 am   BACKBONE|DICT|INTERRES
    75   39   40 1    
    76   39   95 1    
    77   40   41 1    
    78   40   42 1    
    79   40   96 1    
    80   41   97 1    
    81   41   98 1    
    82   41   99 1    
    83   42   43 2    
    84   42   44 am   BACKBONE|DICT|INTERRES
    85   44   45 1    
    86   44  100 1    
    87   45   46 1    
    88   45   47 1    
    89   45  101 1    
    90   46  102 1    
    91   46  103 1    
    92   46  104 1    
    93   47   48 2    
    94   47   49 am   BACKBONE|DICT|INTERRES
    95   49   50 1    
    96   49  105 1    
    97   50   51 1    
    98   50   52 1    
    99   50  106 1    
   100   51  107 1    
   101   51  108 1    
   102   51  109 1    
   103   52   53 2    
   104   52   54 am   BACKBONE|DICT|INTERRES
   105   54   55 1    
   106   54  110 1    
   107   55   56 1    
   108   55   59 1    
   109   55  111 1    
   110   56   57 am   BACKBONE|DICT|INTERRES
   111   56   58 2    
   112   57  112 1    
   113   57  113 1    
   114   59   60 1    
   115   59  114 1    
   116   59  115 1    
   117   60   61 1    
   118   61  116 1    
   119   61  117 1    
@<TRIPOS>SUBSTRUCTURE
     1 UNK         1 GROUP             0       ****    0 ROOT    
