@<TRIPOS>MOLECULE
3R8
117   119    1
SMALL
USER_CHARGES


@<TRIPOS>ATOM
      1 CA         18.5140  -22.2805  -45.7011 C.3       0 UNK        -0.2013 
      2 C          18.5350  -23.7583  -46.0629 C.2       0 UNK         0.4866 
      3 O          18.2769  -24.1119  -47.2135 O.2       0 UNK        -0.5176 
      4 N          18.8433  -24.6215  -45.0909 N.am      1 UNK        -0.4884 
      5 CA         18.9711  -26.0699  -45.2408 C.3       1 UNK         0.0853 
      6 C6         17.5961  -26.7883  -45.3402 C.3       10 UNK        -0.0849 
      7 S7         17.6936  -28.3153  -46.3351 S.3       10 UNK        -0.2776 
      8 C8         16.3513  -29.3151  -45.6206 C.3       10 UNK         0.0316 
      9 C9         16.8212  -30.1335  -44.4261 C.ar      10 UNK        -0.0863 
     10 C10        17.4663  -31.3561  -44.6324 C.ar      10 UNK        -0.1009 
     11 C11        17.8596  -32.1456  -43.5480 C.ar      10 UNK        -0.0712 
     12 C12        17.5982  -31.6993  -42.2492 C.ar      10 UNK        -0.0894 
     13 C13        16.9653  -30.4733  -42.0203 C.ar      10 UNK        -0.0745 
     14 C14        16.5768  -29.6951  -43.1212 C.ar      10 UNK        -0.0972 
     15 C15        16.7000  -30.0716  -40.5672 C.3       10 UNK         0.0209 
     16 S16        15.8690  -28.4619  -40.3122 S.3       10 UNK        -0.2568 
     17 C17        17.1513  -27.1673  -40.1201 C.3       10 UNK        -0.0983 
     18 CA         18.6477  -27.5755  -40.0503 C.3       3 UNK         0.0876 
     19 N          19.1597  -28.0421  -41.3464 N.am      3 UNK        -0.4424 
     20 C          20.4149  -28.4574  -41.5767 C.2       2 UNK         0.4918 
     21 O          21.2440  -28.6376  -40.6865 O.2       2 UNK        -0.4875 
     22 CA         20.8595  -28.6271  -43.0425 C.3       2 UNK         0.0481 
     23 CB         20.9467  -30.1043  -43.4323 C.3       2 UNK        -0.1831 
     24 N          20.0437  -27.9161  -44.0341 N.am      2 UNK        -0.4498 
     25 C          19.8399  -26.5936  -44.0832 C.2       1 UNK         0.5027 
     26 O          20.2841  -25.8059  -43.2408 O.2       1 UNK        -0.4969 
     27 C          19.4736  -26.3914  -39.4913 C.2       3 UNK         0.5005 
     28 O          19.6780  -26.3210  -38.2781 O.2       3 UNK        -0.5279 
     29 N          19.9381  -25.4990  -40.3781 N.am      4 UNK        -0.4463 
     30 CA         20.8571  -24.4088  -40.0568 C.3       4 UNK         0.0283 
     31 CB         20.4818  -23.1596  -40.8717 C.3       4 UNK        -0.1875 
     32 C          22.3058  -24.8272  -40.3434 C.2       4 UNK         0.4949 
     33 O          23.1781  -24.6122  -39.5013 O.2       4 UNK        -0.5039 
     34 N          22.5434  -25.4313  -41.5166 N.am      5 UNK        -0.4663 
     35 CA         23.8609  -25.8437  -42.0082 C.3       5 UNK         0.0242 
     36 CB         23.8407  -25.8798  -43.5486 C.3       5 UNK        -0.1982 
     37 C          24.3676  -27.1556  -41.3739 C.2       5 UNK         0.5017 
     38 O          24.6739  -28.1098  -42.0899 O.2       5 UNK        -0.5012 
     39 N          24.4653  -27.1579  -40.0372 N.am      6 UNK        -0.4439 
     40 CA         25.1870  -28.1063  -39.1762 C.3       6 UNK         0.0297 
     41 CB         26.7003  -27.8146  -39.2627 C.3       6 UNK        -0.2006 
     42 C          24.8748  -29.6038  -39.3922 C.2       6 UNK         0.4892 
     43 O          25.7652  -30.4364  -39.2098 O.2       6 UNK        -0.5089 
     44 N          23.6276  -29.9249  -39.7667 N.am      7 UNK        -0.4243 
     45 CA         23.1162  -31.2691  -40.0651 C.3       7 UNK         0.0196 
     46 CB         23.1113  -32.1574  -38.8023 C.3       7 UNK        -0.2007 
     47 C          23.8045  -31.9430  -41.2699 C.2       7 UNK         0.5020 
     48 O          23.8488  -33.1731  -41.3350 O.2       7 UNK        -0.5147 
     49 N          24.3029  -31.1460  -42.2279 N.am      8 UNK        -0.4734 
     50 CA         24.9520  -31.6055  -43.4626 C.3       8 UNK         0.0238 
     51 CB         25.8409  -30.4727  -44.0087 C.3       8 UNK        -0.1912 
     52 C          23.9447  -32.1242  -44.5125 C.2       8 UNK         0.5038 
     53 O          23.9281  -31.6408  -45.6463 O.2       8 UNK        -0.5046 
     54 N          23.1087  -33.0857  -44.1078 N.am      9 UNK        -0.4200 
     55 CA         22.1165  -33.7756  -44.9423 C.3       9 UNK         0.0839 
     56 C          22.7777  -34.6625  -46.0313 C.2       9 UNK         0.5513 
     57 N          22.1603  -34.7717  -47.1995 N.am      9 UNK        -0.7519 
     58 O          23.8157  -35.2845  -45.8124 O.2       9 UNK        -0.4960 
     59 C59        21.1400  -34.6104  -44.0738 C.3       10 UNK        -0.0876 
     60 S60        20.1774  -33.5583  -42.9358 S.3       10 UNK        -0.2414 
     61 C61        18.5655  -33.4754  -43.7851 C.3       10 UNK         0.0169 
     62 H62        17.5249  -21.8629  -45.8876 H         1 UNK         0.0903 
     63 H63        18.7600  -22.1136  -44.6524 H         1 UNK         0.0903 
     64 H64        19.2348  -21.7349  -46.3095 H         1 UNK         0.0903 
     65 H65        19.1175  -24.2894  -44.1738 H         1 UNK         0.3096 
     66 H66        19.5402  -26.2447  -46.1572 H         1 UNK         0.1121 
     67 H67        16.8660  -26.1465  -45.8355 H         1 UNK         0.0849 
     68 H68        17.1793  -26.9934  -44.3526 H         1 UNK         0.0849 
     69 H69        15.5111  -28.6738  -45.3489 H         1 UNK         0.0865 
     70 H70        15.9728  -29.9890  -46.3908 H         1 UNK         0.0865 
     71 H71        17.6565  -31.6937  -45.6423 H         1 UNK         0.1346 
     72 H72        17.8964  -32.3127  -41.4095 H         1 UNK         0.1412 
     73 H73        16.0629  -28.7560  -42.9774 H         1 UNK         0.1426 
     74 H74        17.6204  -30.1334  -39.9894 H         1 UNK         0.0716 
     75 H75        16.0423  -30.8302  -40.1406 H         1 UNK         0.0716 
     76 H76        16.8718  -26.6373  -39.2067 H         1 UNK         0.0695 
     77 H77        17.0044  -26.4432  -40.9239 H         1 UNK         0.0695 
     78 H78        18.7669  -28.3835  -39.3274 H         1 UNK         0.0983 
     79 H79        18.5316  -27.9650  -42.1311 H         1 UNK         0.3095 
     80 H80        21.8693  -28.2231  -43.0990 H         1 UNK         0.0454 
     81 H81        19.9587  -30.5475  -43.5075 H         1 UNK         0.0851 
     82 H82        21.5040  -30.6802  -42.6956 H         1 UNK         0.0851 
     83 H83        21.4465  -30.2358  -44.3918 H         1 UNK         0.0851 
     84 H84        19.6041  -28.4861  -44.7461 H         1 UNK         0.2976 
     85 H85        19.7668  -25.6608  -41.3651 H         1 UNK         0.3116 
     86 H86        20.7815  -24.1524  -38.9979 H         1 UNK         0.0646 
     87 H87        20.5442  -23.3361  -41.9461 H         1 UNK         0.0847 
     88 H88        19.4674  -22.8310  -40.6457 H         1 UNK         0.0847 
     89 H89        21.1498  -22.3291  -40.6394 H         1 UNK         0.0847 
     90 H90        21.7622  -25.5809  -42.1498 H         1 UNK         0.3040 
     91 H91        24.5833  -25.0749  -41.7239 H         1 UNK         0.1015 
     92 H92        24.8221  -26.1421  -43.9459 H         1 UNK         0.0786 
     93 H93        23.5775  -24.9058  -43.9615 H         1 UNK         0.0786 
     94 H94        23.1297  -26.6059  -43.9379 H         1 UNK         0.0786 
     95 H95        24.1106  -26.3264  -39.5710 H         1 UNK         0.3172 
     96 H96        24.8678  -27.8841  -38.1570 H         1 UNK         0.0595 
     97 H97        27.0977  -28.0555  -40.2495 H         1 UNK         0.0839 
     98 H98        27.2602  -28.4007  -38.5328 H         1 UNK         0.0839 
     99 H99        26.9162  -26.7653  -39.0612 H         1 UNK         0.0839 
    100 H100       22.9621  -29.1744  -39.9344 H         1 UNK         0.2998 
    101 H101       22.0753  -31.1361  -40.3608 H         1 UNK         0.0822 
    102 H102       22.5831  -33.0939  -38.9858 H         1 UNK         0.0787 
    103 H103       22.6090  -31.6624  -37.9712 H         1 UNK         0.0787 
    104 H104       24.1212  -32.4137  -38.4813 H         1 UNK         0.0787 
    105 H105       24.2510  -30.1394  -42.0996 H         1 UNK         0.3055 
    106 H106       25.6062  -32.4445  -43.2145 H         1 UNK         0.1106 
    107 H107       26.5643  -30.1408  -43.2637 H         1 UNK         0.0828 
    108 H108       26.4039  -30.8021  -44.8829 H         1 UNK         0.0828 
    109 H109       25.2494  -29.6065  -44.3081 H         1 UNK         0.0828 
    110 H110       23.1974  -33.4091  -43.1498 H         1 UNK         0.2931 
    111 H111       21.5368  -33.0025  -45.4518 H         1 UNK         0.0412 
    112 H112       21.3047  -34.2719  -47.3866 H         1 UNK         0.3472 
    113 H113       22.5646  -35.3560  -47.9151 H         1 UNK         0.3472 
    114 H114       20.4553  -35.1877  -44.6981 H         1 UNK         0.0970 
    115 H115       21.6901  -35.3437  -43.4810 H         1 UNK         0.0970 
    116 H116       18.7114  -33.6318  -44.8549 H         1 UNK         0.0612 
    117 H117       17.9326  -34.2913  -43.4340 H         1 UNK         0.0612 
@<TRIPOS>BOND
     1    1    2 1    
     2    1   62 1    
     3    1   63 1    
     4    1   64 1    
     5    2    3 2    
     6    2    4 am   BACKBONE|DICT|INTERRES
     7    4    5 1    
     8    4   65 1    
     9    5    6 1    
    10    5   25 1    
    11    5   66 1    
    12    6    7 1    
    13    6   67 1    
    14    6   68 1    
    15    7    8 1    
    16    8    9 1    
    17    8   69 1    
    18    8   70 1    
    19    9   10 ar   
    20    9   14 ar   
    21   10   11 ar   
    22   10   71 1    
    23   11   12 ar   
    24   11   61 1    
    25   12   13 ar   
    26   12   72 1    
    27   13   14 ar   
    28   13   15 1    
    29   14   73 1    
    30   15   16 1    
    31   15   74 1    
    32   15   75 1    
    33   16   17 1    
    34   17   18 1    
    35   17   76 1    
    36   17   77 1    
    37   18   19 1    
    38   18   27 1    
    39   18   78 1    
    40   19   20 am   BACKBONE|DICT|INTERRES
    41   19   79 1    
    42   20   21 2    
    43   20   22 1    
    44   22   23 1    
    45   22   24 1    
    46   22   80 1    
    47   23   81 1    
    48   23   82 1    
    49   23   83 1    
    50   24   25 am   BACKBONE|DICT|INTERRES
    51   24   84 1    
    52   25   26 2    
    53   27   28 2    
    54   27   29 am   BACKBONE|DICT|INTERRES
    55   29   30 1    
    56   29   85 1    
    57   30   31 1    
    58   30   32 1    
    59   30   86 1    
    60   31   87 1    
    61   31   88 1    
    62   31   89 1    
    63   32   33 2    
    64   32   34 am   BACKBONE|DICT|INTERRES
    65   34   35 1    
    66   34   90 1    
    67   35   36 1    
    68   35   37 1    
    69   35   91 1    
    70   36   92 1    
    71   36   93 1    
    72   36   94 1    
    73   37   38 2    
    74   37   39 am   BACKBONE|DICT|INTERRES
    75   39   40 1    
    76   39   95 1    
    77   40   41 1    
    78   40   42 1    
    79   40   96 1    
    80   41   97 1    
    81   41   98 1    
    82   41   99 1    
    83   42   43 2    
    84   42   44 am   BACKBONE|DICT|INTERRES
    85   44   45 1    
    86   44  100 1    
    87   45   46 1    
    88   45   47 1    
    89   45  101 1    
    90   46  102 1    
    91   46  103 1    
    92   46  104 1    
    93   47   48 2    
    94   47   49 am   BACKBONE|DICT|INTERRES
    95   49   50 1    
    96   49  105 1    
    97   50   51 1    
    98   50   52 1    
    99   50  106 1    
   100   51  107 1    
   101   51  108 1    
   102   51  109 1    
   103   52   53 2    
   104   52   54 am   BACKBONE|DICT|INTERRES
   105   54   55 1    
   106   54  110 1    
   107   55   56 1    
   108   55   59 1    
   109   55  111 1    
   110   56   57 am   BACKBONE|DICT|INTERRES
   111   56   58 2    
   112   57  112 1    
   113   57  113 1    
   114   59   60 1    
   115   59  114 1    
   116   59  115 1    
   117   60   61 1    
   118   61  116 1    
   119   61  117 1    
@<TRIPOS>SUBSTRUCTURE
     1 UNK         1 GROUP             0       ****    0 ROOT    
