@<TRIPOS>MOLECULE
3R8
117   119    1
SMALL
USER_CHARGES


@<TRIPOS>ATOM
      1 CA         19.1751  -27.6912  -40.4744 C.3       0 UNK        -0.2013 
      2 C          18.4550  -26.5086  -41.1018 C.2       0 UNK         0.4866 
      3 O          17.8154  -25.7364  -40.3872 O.2       0 UNK        -0.5176 
      4 N          18.5631  -26.3528  -42.4253 N.am      1 UNK        -0.4884 
      5 CA         18.0257  -25.2170  -43.1727 C.3       1 UNK         0.0853 
      6 C6         16.5048  -25.3432  -43.4885 C.3       10 UNK        -0.0849 
      7 S7         16.0139  -26.4981  -44.8192 S.3       10 UNK        -0.2776 
      8 C8         15.7491  -28.0761  -43.9426 C.3       10 UNK         0.0316 
      9 C9         16.9300  -29.0243  -44.1092 C.ar      10 UNK        -0.0863 
     10 C10        17.5488  -29.5958  -42.9929 C.ar      10 UNK        -0.1009 
     11 C11        18.6352  -30.4634  -43.1482 C.ar      10 UNK        -0.0712 
     12 C12        19.1045  -30.7517  -44.4348 C.ar      10 UNK        -0.0894 
     13 C13        18.4756  -30.2121  -45.5602 C.ar      10 UNK        -0.0745 
     14 C14        17.3849  -29.3569  -45.3893 C.ar      10 UNK        -0.0972 
     15 C15        18.9570  -30.5699  -46.9607 C.3       10 UNK         0.0209 
     16 S16        19.5114  -29.1140  -47.9055 S.3       10 UNK        -0.2568 
     17 C17        20.9827  -28.6170  -46.9533 C.3       10 UNK        -0.0983 
     18 CA         21.3920  -27.1466  -47.2130 C.3       3 UNK         0.0876 
     19 N          20.3031  -26.2105  -46.9072 N.am      3 UNK        -0.4424 
     20 C          20.2901  -24.9131  -47.2401 C.2       2 UNK         0.4918 
     21 O          21.1654  -24.3768  -47.9201 O.2       2 UNK        -0.4875 
     22 CA         19.1233  -24.0516  -46.7159 C.3       2 UNK         0.0481 
     23 CB         18.0876  -23.8338  -47.8306 C.3       2 UNK        -0.1831 
     24 N          18.4311  -24.5463  -45.5168 N.am      2 UNK        -0.4498 
     25 C          18.9779  -24.8830  -44.3396 C.2       1 UNK         0.5027 
     26 O          20.1956  -24.9308  -44.1454 O.2       1 UNK        -0.4969 
     27 C          22.6930  -26.8331  -46.4396 C.2       3 UNK         0.5005 
     28 O          23.7605  -27.2652  -46.8768 O.2       3 UNK        -0.5279 
     29 N          22.5833  -26.1275  -45.2993 N.am      4 UNK        -0.4463 
     30 CA         23.6565  -25.7866  -44.3539 C.3       4 UNK         0.0283 
     31 CB         24.7037  -24.8598  -45.0070 C.3       4 UNK        -0.1875 
     32 C          24.2908  -27.0161  -43.6688 C.2       4 UNK         0.4949 
     33 O          25.4321  -26.9447  -43.2123 O.2       4 UNK        -0.5039 
     34 N          23.5304  -28.1175  -43.5866 N.am      5 UNK        -0.4663 
     35 CA         23.9418  -29.3861  -42.9747 C.3       5 UNK         0.0242 
     36 CB         23.1602  -30.5277  -43.6440 C.3       5 UNK        -0.1982 
     37 C          23.7781  -29.4090  -41.4407 C.2       5 UNK         0.5017 
     38 O          24.2228  -30.3661  -40.8036 O.2       5 UNK        -0.5012 
     39 N          23.1610  -28.3558  -40.8819 N.am      6 UNK        -0.4439 
     40 CA         22.9741  -28.0765  -39.4538 C.3       6 UNK         0.0297 
     41 CB         24.3398  -27.7685  -38.7966 C.3       6 UNK        -0.2006 
     42 C          22.1723  -29.1692  -38.7164 C.2       6 UNK         0.4892 
     43 O          21.3844  -29.8826  -39.3400 O.2       6 UNK        -0.5089 
     44 N          22.3722  -29.2662  -37.3947 N.am      7 UNK        -0.4243 
     45 CA         21.7408  -30.2583  -36.5196 C.3       7 UNK         0.0196 
     46 CB         21.9786  -29.8605  -35.0536 C.3       7 UNK        -0.2007 
     47 C          22.2231  -31.6983  -36.7725 C.2       7 UNK         0.5020 
     48 O          21.5088  -32.6371  -36.4201 O.2       7 UNK        -0.5147 
     49 N          23.4126  -31.8527  -37.3743 N.am      8 UNK        -0.4734 
     50 CA         23.9569  -33.1371  -37.8212 C.3       8 UNK         0.0238 
     51 CB         25.4283  -32.9634  -38.2331 C.3       8 UNK        -0.1912 
     52 C          23.1278  -33.7350  -38.9692 C.2       8 UNK         0.5038 
     53 O          22.7609  -34.9090  -38.9003 O.2       8 UNK        -0.5046 
     54 N          22.8131  -32.8969  -39.9669 N.am      9 UNK        -0.4200 
     55 CA         21.9528  -33.2063  -41.1144 C.3       9 UNK         0.0839 
     56 C          22.4980  -34.3594  -42.0146 C.2       9 UNK         0.5513 
     57 N          21.6513  -35.0232  -42.7890 N.am      9 UNK        -0.7519 
     58 O          23.6980  -34.6234  -42.0614 O.2       9 UNK        -0.4960 
     59 C59        20.4610  -33.3324  -40.6807 C.3       10 UNK        -0.0876 
     60 S60        19.2848  -32.9056  -42.0083 S.3       10 UNK        -0.2414 
     61 C61        19.3078  -31.0858  -41.9309 C.3       10 UNK         0.0169 
     62 H62        18.4556  -28.4042  -40.0741 H         1 UNK         0.0903 
     63 H63        19.8127  -28.2100  -41.1897 H         1 UNK         0.0903 
     64 H64        19.8018  -27.3502  -39.6516 H         1 UNK         0.0903 
     65 H65        19.1139  -26.9998  -42.9719 H         1 UNK         0.3096 
     66 H66        18.1239  -24.3415  -42.5260 H         1 UNK         0.1121 
     67 H67        16.1200  -24.3604  -43.7665 H         1 UNK         0.0849 
     68 H68        15.9595  -25.5992  -42.5790 H         1 UNK         0.0849 
     69 H69        15.5365  -27.8906  -42.8888 H         1 UNK         0.0865 
     70 H70        14.8601  -28.5573  -44.3524 H         1 UNK         0.0865 
     71 H71        17.1823  -29.3663  -42.0021 H         1 UNK         0.1346 
     72 H72        19.9460  -31.4198  -44.5575 H         1 UNK         0.1412 
     73 H73        16.8961  -28.9377  -46.2585 H         1 UNK         0.1426 
     74 H74        18.1403  -31.0494  -47.5019 H         1 UNK         0.0716 
     75 H75        19.7689  -31.2980  -46.9221 H         1 UNK         0.0716 
     76 H76        21.7938  -29.2974  -47.2210 H         1 UNK         0.0695 
     77 H77        20.7920  -28.7708  -45.8899 H         1 UNK         0.0695 
     78 H78        21.6256  -27.0421  -48.2749 H         1 UNK         0.0983 
     79 H79        19.5252  -26.5824  -46.3829 H         1 UNK         0.3095 
     80 H80        19.5456  -23.0797  -46.4536 H         1 UNK         0.0454 
     81 H81        17.3209  -23.1200  -47.5289 H         1 UNK         0.0851 
     82 H82        17.5912  -24.7653  -48.1058 H         1 UNK         0.0851 
     83 H83        18.5575  -23.4367  -48.7317 H         1 UNK         0.0851 
     84 H84        17.4241  -24.6137  -45.5857 H         1 UNK         0.2976 
     85 H85        21.6606  -25.7919  -45.0299 H         1 UNK         0.3116 
     86 H86        23.1752  -25.2190  -43.5560 H         1 UNK         0.0646 
     87 H87        25.2908  -25.3797  -45.7644 H         1 UNK         0.0847 
     88 H88        25.4036  -24.4754  -44.2642 H         1 UNK         0.0847 
     89 H89        24.2313  -23.9991  -45.4803 H         1 UNK         0.0847 
     90 H90        22.6077  -28.0864  -43.9940 H         1 UNK         0.3040 
     91 H91        25.0035  -29.5424  -43.1795 H         1 UNK         0.1015 
     92 H92        22.0935  -30.4694  -43.4303 H         1 UNK         0.0786 
     93 H93        23.5206  -31.4973  -43.2991 H         1 UNK         0.0786 
     94 H94        23.2852  -30.5115  -44.7270 H         1 UNK         0.0786 
     95 H95        22.8098  -27.6519  -41.5137 H         1 UNK         0.3172 
     96 H96        22.3693  -27.1702  -39.4019 H         1 UNK         0.0595 
     97 H97        24.9576  -28.6629  -38.7040 H         1 UNK         0.0839 
     98 H98        24.2233  -27.3384  -37.8014 H         1 UNK         0.0839 
     99 H99        24.9022  -27.0423  -39.3840 H         1 UNK         0.0839 
    100 H100       23.0244  -28.6304  -36.9589 H         1 UNK         0.2998 
    101 H101       20.6655  -30.2390  -36.7110 H         1 UNK         0.0822 
    102 H102       21.4936  -30.5638  -34.3750 H         1 UNK         0.0787 
    103 H103       23.0407  -29.8484  -34.8051 H         1 UNK         0.0787 
    104 H104       21.5704  -28.8728  -34.8383 H         1 UNK         0.0787 
    105 H105       23.9283  -31.0232  -37.6290 H         1 UNK         0.3055 
    106 H106       23.9148  -33.8355  -36.9821 H         1 UNK         0.1106 
    107 H107       25.5413  -32.2498  -39.0506 H         1 UNK         0.0828 
    108 H108       26.0357  -32.6156  -37.3975 H         1 UNK         0.0828 
    109 H109       25.8523  -33.9111  -38.5681 H         1 UNK         0.0828 
    110 H110       23.2054  -31.9616  -39.9620 H         1 UNK         0.2931 
    111 H111       22.0352  -32.3154  -41.7321 H         1 UNK         0.0412 
    112 H112       21.9954  -35.7561  -43.3894 H         1 UNK         0.3472 
    113 H113       20.6704  -34.7837  -42.7879 H         1 UNK         0.3472 
    114 H114       20.2560  -32.6673  -39.8393 H         1 UNK         0.0970 
    115 H115       20.2482  -34.3392  -40.3169 H         1 UNK         0.0970 
    116 H116       18.8185  -30.7709  -41.0082 H         1 UNK         0.0612 
    117 H117       20.3343  -30.7254  -41.8720 H         1 UNK         0.0612 
@<TRIPOS>BOND
     1    1    2 1    
     2    1   62 1    
     3    1   63 1    
     4    1   64 1    
     5    2    3 2    
     6    2    4 am   BACKBONE|DICT|INTERRES
     7    4    5 1    
     8    4   65 1    
     9    5    6 1    
    10    5   25 1    
    11    5   66 1    
    12    6    7 1    
    13    6   67 1    
    14    6   68 1    
    15    7    8 1    
    16    8    9 1    
    17    8   69 1    
    18    8   70 1    
    19    9   10 ar   
    20    9   14 ar   
    21   10   11 ar   
    22   10   71 1    
    23   11   12 ar   
    24   11   61 1    
    25   12   13 ar   
    26   12   72 1    
    27   13   14 ar   
    28   13   15 1    
    29   14   73 1    
    30   15   16 1    
    31   15   74 1    
    32   15   75 1    
    33   16   17 1    
    34   17   18 1    
    35   17   76 1    
    36   17   77 1    
    37   18   19 1    
    38   18   27 1    
    39   18   78 1    
    40   19   20 am   BACKBONE|DICT|INTERRES
    41   19   79 1    
    42   20   21 2    
    43   20   22 1    
    44   22   23 1    
    45   22   24 1    
    46   22   80 1    
    47   23   81 1    
    48   23   82 1    
    49   23   83 1    
    50   24   25 am   BACKBONE|DICT|INTERRES
    51   24   84 1    
    52   25   26 2    
    53   27   28 2    
    54   27   29 am   BACKBONE|DICT|INTERRES
    55   29   30 1    
    56   29   85 1    
    57   30   31 1    
    58   30   32 1    
    59   30   86 1    
    60   31   87 1    
    61   31   88 1    
    62   31   89 1    
    63   32   33 2    
    64   32   34 am   BACKBONE|DICT|INTERRES
    65   34   35 1    
    66   34   90 1    
    67   35   36 1    
    68   35   37 1    
    69   35   91 1    
    70   36   92 1    
    71   36   93 1    
    72   36   94 1    
    73   37   38 2    
    74   37   39 am   BACKBONE|DICT|INTERRES
    75   39   40 1    
    76   39   95 1    
    77   40   41 1    
    78   40   42 1    
    79   40   96 1    
    80   41   97 1    
    81   41   98 1    
    82   41   99 1    
    83   42   43 2    
    84   42   44 am   BACKBONE|DICT|INTERRES
    85   44   45 1    
    86   44  100 1    
    87   45   46 1    
    88   45   47 1    
    89   45  101 1    
    90   46  102 1    
    91   46  103 1    
    92   46  104 1    
    93   47   48 2    
    94   47   49 am   BACKBONE|DICT|INTERRES
    95   49   50 1    
    96   49  105 1    
    97   50   51 1    
    98   50   52 1    
    99   50  106 1    
   100   51  107 1    
   101   51  108 1    
   102   51  109 1    
   103   52   53 2    
   104   52   54 am   BACKBONE|DICT|INTERRES
   105   54   55 1    
   106   54  110 1    
   107   55   56 1    
   108   55   59 1    
   109   55  111 1    
   110   56   57 am   BACKBONE|DICT|INTERRES
   111   56   58 2    
   112   57  112 1    
   113   57  113 1    
   114   59   60 1    
   115   59  114 1    
   116   59  115 1    
   117   60   61 1    
   118   61  116 1    
   119   61  117 1    
@<TRIPOS>SUBSTRUCTURE
     1 UNK         1 GROUP             0       ****    0 ROOT    
