@<TRIPOS>MOLECULE
3R8
117   119    1
SMALL
USER_CHARGES


@<TRIPOS>ATOM
      1 CA         14.5606  -25.9852  -46.6625 C.3       0 UNK        -0.2013 
      2 C          15.6949  -25.0020  -46.4161 C.2       0 UNK         0.4866 
      3 O          15.4982  -23.7939  -46.5452 O.2       0 UNK        -0.5176 
      4 N          16.8806  -25.5090  -46.0524 N.am      1 UNK        -0.4884 
      5 CA         18.0901  -24.7147  -45.7897 C.3       1 UNK         0.0853 
      6 C6         19.3725  -25.5223  -46.1476 C.3       10 UNK        -0.0849 
      7 S7         19.9390  -26.7058  -44.8751 S.3       10 UNK        -0.2776 
      8 C8         19.3495  -28.3177  -45.4770 C.3       10 UNK         0.0316 
      9 C9         19.5506  -29.3466  -44.3766 C.ar      10 UNK        -0.0863 
     10 C10        20.7248  -30.1037  -44.3196 C.ar      10 UNK        -0.1009 
     11 C11        20.9628  -30.9583  -43.2394 C.ar      10 UNK        -0.0712 
     12 C12        20.0359  -31.0216  -42.1948 C.ar      10 UNK        -0.0894 
     13 C13        18.8600  -30.2675  -42.2375 C.ar      10 UNK        -0.0745 
     14 C14        18.5992  -29.4722  -43.3590 C.ar      10 UNK        -0.0972 
     15 C15        17.8991  -30.2962  -41.0523 C.3       10 UNK         0.0209 
     16 S16        17.3896  -28.6353  -40.4796 S.3       10 UNK        -0.2568 
     17 C17        18.9736  -27.8127  -40.0644 C.3       10 UNK        -0.0983 
     18 CA         19.5162  -26.9359  -41.2285 C.3       3 UNK         0.0876 
     19 N          18.5221  -26.0199  -41.8033 N.am      3 UNK        -0.4424 
     20 C          17.9888  -24.9273  -41.2389 C.2       2 UNK         0.4918 
     21 O          18.2564  -24.5412  -40.1005 O.2       2 UNK        -0.4875 
     22 CA         16.9805  -24.1359  -42.1014 C.3       2 UNK         0.0481 
     23 CB         17.0157  -22.6202  -41.8124 C.3       2 UNK        -0.1831 
     24 N          17.0991  -24.4129  -43.5426 N.am      2 UNK        -0.4498 
     25 C          18.1270  -24.1189  -44.3582 C.2       1 UNK         0.5027 
     26 O          19.1118  -23.4696  -44.0034 O.2       1 UNK        -0.4969 
     27 C          20.8635  -26.2404  -40.9393 C.2       3 UNK         0.5005 
     28 O          21.5648  -26.6059  -39.9945 O.2       3 UNK        -0.5279 
     29 N          21.2027  -25.2498  -41.7785 N.am      4 UNK        -0.4463 
     30 CA         22.4710  -24.5241  -41.7514 C.3       4 UNK         0.0283 
     31 CB         22.2539  -23.1203  -42.3376 C.3       4 UNK        -0.1875 
     32 C          23.5823  -25.2558  -42.5220 C.2       4 UNK         0.4949 
     33 O          24.7568  -25.0622  -42.2059 O.2       4 UNK        -0.5039 
     34 N          23.2155  -26.0795  -43.5153 N.am      5 UNK        -0.4663 
     35 CA         24.1351  -26.8122  -44.3931 C.3       5 UNK         0.0242 
     36 CB         23.4192  -27.1231  -45.7212 C.3       5 UNK        -0.1982 
     37 C          24.7133  -28.0747  -43.7216 C.2       5 UNK         0.5017 
     38 O          24.5641  -29.1746  -44.2553 O.2       5 UNK        -0.5012 
     39 N          25.3757  -27.8740  -42.5740 N.am      6 UNK        -0.4439 
     40 CA         25.9824  -28.8688  -41.6802 C.3       6 UNK         0.0297 
     41 CB         27.0171  -29.7399  -42.4285 C.3       6 UNK        -0.2006 
     42 C          24.9458  -29.7156  -40.9127 C.2       6 UNK         0.4892 
     43 O          23.7369  -29.5257  -41.0591 O.2       6 UNK        -0.5089 
     44 N          25.4585  -30.6056  -40.0551 N.am      7 UNK        -0.4243 
     45 CA         24.6827  -31.5268  -39.2239 C.3       7 UNK         0.0196 
     46 CB         25.5022  -31.8348  -37.9563 C.3       7 UNK        -0.2007 
     47 C          24.3313  -32.8220  -39.9790 C.2       7 UNK         0.5020 
     48 O          24.8027  -33.0386  -41.0974 O.2       7 UNK        -0.5147 
     49 N          23.5363  -33.6753  -39.3186 N.am      8 UNK        -0.4734 
     50 CA         23.0447  -34.9792  -39.7786 C.3       8 UNK         0.0238 
     51 CB         24.2048  -35.9563  -40.0885 C.3       8 UNK        -0.1912 
     52 C          22.0015  -34.8281  -40.9010 C.2       8 UNK         0.5038 
     53 O          20.9699  -34.2005  -40.6570 O.2       8 UNK        -0.5046 
     54 N          22.2573  -35.4283  -42.0720 N.am      9 UNK        -0.4200 
     55 CA         21.3313  -35.5520  -43.2155 C.3       9 UNK         0.0839 
     56 C          20.1308  -36.5170  -42.9639 C.2       9 UNK         0.5513 
     57 N          20.1680  -37.3722  -41.9485 N.am      9 UNK        -0.7519 
     58 O          19.1610  -36.5190  -43.7182 O.2       9 UNK        -0.4960 
     59 C59        20.8760  -34.1889  -43.8151 C.3       10 UNK        -0.0876 
     60 S60        22.2606  -33.1439  -44.3842 S.3       10 UNK        -0.2414 
     61 C61        22.2413  -31.7821  -43.1745 C.3       10 UNK         0.0169 
     62 H62        14.8716  -27.0175  -46.5028 H         1 UNK         0.0903 
     63 H63        13.7281  -25.7742  -45.9917 H         1 UNK         0.0903 
     64 H64        14.2028  -25.8945  -47.6877 H         1 UNK         0.0903 
     65 H65        16.9843  -26.5090  -45.9596 H         1 UNK         0.3096 
     66 H66        18.0694  -23.8515  -46.4594 H         1 UNK         0.1121 
     67 H67        19.2487  -26.0388  -47.1010 H         1 UNK         0.0849 
     68 H68        20.1953  -24.8235  -46.3091 H         1 UNK         0.0849 
     69 H69        19.8968  -28.5991  -46.3781 H         1 UNK         0.0865 
     70 H70        18.2957  -28.2600  -45.7508 H         1 UNK         0.0865 
     71 H71        21.4678  -30.0141  -45.1004 H         1 UNK         0.1346 
     72 H72        20.2391  -31.6535  -41.3405 H         1 UNK         0.1412 
     73 H73        17.6950  -28.8801  -43.3941 H         1 UNK         0.1426 
     74 H74        18.3407  -30.8299  -40.2092 H         1 UNK         0.0716 
     75 H75        17.0084  -30.8565  -41.3387 H         1 UNK         0.0716 
     76 H76        19.7039  -28.5740  -39.7839 H         1 UNK         0.0695 
     77 H77        18.8132  -27.1998  -39.1760 H         1 UNK         0.0695 
     78 H78        19.7812  -27.6178  -42.0312 H         1 UNK         0.0983 
     79 H79        18.2302  -26.2434  -42.7429 H         1 UNK         0.3095 
     80 H80        15.9936  -24.4988  -41.8113 H         1 UNK         0.0454 
     81 H81        16.3068  -22.0792  -42.4389 H         1 UNK         0.0851 
     82 H82        18.0057  -22.1957  -41.9803 H         1 UNK         0.0851 
     83 H83        16.7504  -22.4148  -40.7747 H         1 UNK         0.0851 
     84 H84        16.3412  -24.9457  -43.9465 H         1 UNK         0.2976 
     85 H85        20.5497  -24.9928  -42.5076 H         1 UNK         0.3116 
     86 H86        22.7985  -24.4134  -40.7154 H         1 UNK         0.0646 
     87 H87        23.1751  -22.5368  -42.3058 H         1 UNK         0.0847 
     88 H88        21.5008  -22.5676  -41.7755 H         1 UNK         0.0847 
     89 H89        21.9291  -23.1615  -43.3784 H         1 UNK         0.0847 
     90 H90        22.2294  -26.2181  -43.6883 H         1 UNK         0.3040 
     91 H91        24.9819  -26.1623  -44.6261 H         1 UNK         0.1015 
     92 H92        23.0211  -26.2192  -46.1828 H         1 UNK         0.0786 
     93 H93        22.5935  -27.8203  -45.5796 H         1 UNK         0.0786 
     94 H94        24.1060  -27.5766  -46.4370 H         1 UNK         0.0786 
     95 H95        25.3815  -26.9172  -42.2307 H         1 UNK         0.3172 
     96 H96        26.5205  -28.2881  -40.9296 H         1 UNK         0.0595 
     97 H97        26.5364  -30.4669  -43.0844 H         1 UNK         0.0839 
     98 H98        27.6438  -30.3000  -41.7344 H         1 UNK         0.0839 
     99 H99        27.6850  -29.1303  -43.0372 H         1 UNK         0.0839 
    100 H100       26.4609  -30.7194  -40.0242 H         1 UNK         0.2998 
    101 H101       23.7490  -31.0423  -38.9291 H         1 UNK         0.0822 
    102 H102       26.4247  -32.3672  -38.1921 H         1 UNK         0.0787 
    103 H103       25.7701  -30.9203  -37.4263 H         1 UNK         0.0787 
    104 H104       24.9398  -32.4534  -37.2561 H         1 UNK         0.0787 
    105 H105       23.1837  -33.3844  -38.4168 H         1 UNK         0.3055 
    106 H106       22.4960  -35.4031  -38.9356 H         1 UNK         0.1106 
    107 H107       23.8294  -36.9576  -40.3036 H         1 UNK         0.0828 
    108 H108       24.8069  -35.6394  -40.9403 H         1 UNK         0.0828 
    109 H109       24.8739  -36.0486  -39.2329 H         1 UNK         0.0828 
    110 H110       23.1406  -35.9049  -42.1780 H         1 UNK         0.2931 
    111 H111       21.9144  -36.0526  -43.9892 H         1 UNK         0.0412 
    112 H112       19.3913  -37.9987  -41.8040 H         1 UNK         0.3472 
    113 H113       20.9622  -37.4033  -41.3304 H         1 UNK         0.3472 
    114 H114       20.2405  -34.3541  -44.6868 H         1 UNK         0.0970 
    115 H115       20.2530  -33.6475  -43.1041 H         1 UNK         0.0970 
    116 H116       22.3859  -32.1882  -42.1741 H         1 UNK         0.0612 
    117 H117       23.0974  -31.1349  -43.3611 H         1 UNK         0.0612 
@<TRIPOS>BOND
     1    1    2 1    
     2    1   62 1    
     3    1   63 1    
     4    1   64 1    
     5    2    3 2    
     6    2    4 am   BACKBONE|DICT|INTERRES
     7    4    5 1    
     8    4   65 1    
     9    5    6 1    
    10    5   25 1    
    11    5   66 1    
    12    6    7 1    
    13    6   67 1    
    14    6   68 1    
    15    7    8 1    
    16    8    9 1    
    17    8   69 1    
    18    8   70 1    
    19    9   10 ar   
    20    9   14 ar   
    21   10   11 ar   
    22   10   71 1    
    23   11   12 ar   
    24   11   61 1    
    25   12   13 ar   
    26   12   72 1    
    27   13   14 ar   
    28   13   15 1    
    29   14   73 1    
    30   15   16 1    
    31   15   74 1    
    32   15   75 1    
    33   16   17 1    
    34   17   18 1    
    35   17   76 1    
    36   17   77 1    
    37   18   19 1    
    38   18   27 1    
    39   18   78 1    
    40   19   20 am   BACKBONE|DICT|INTERRES
    41   19   79 1    
    42   20   21 2    
    43   20   22 1    
    44   22   23 1    
    45   22   24 1    
    46   22   80 1    
    47   23   81 1    
    48   23   82 1    
    49   23   83 1    
    50   24   25 am   BACKBONE|DICT|INTERRES
    51   24   84 1    
    52   25   26 2    
    53   27   28 2    
    54   27   29 am   BACKBONE|DICT|INTERRES
    55   29   30 1    
    56   29   85 1    
    57   30   31 1    
    58   30   32 1    
    59   30   86 1    
    60   31   87 1    
    61   31   88 1    
    62   31   89 1    
    63   32   33 2    
    64   32   34 am   BACKBONE|DICT|INTERRES
    65   34   35 1    
    66   34   90 1    
    67   35   36 1    
    68   35   37 1    
    69   35   91 1    
    70   36   92 1    
    71   36   93 1    
    72   36   94 1    
    73   37   38 2    
    74   37   39 am   BACKBONE|DICT|INTERRES
    75   39   40 1    
    76   39   95 1    
    77   40   41 1    
    78   40   42 1    
    79   40   96 1    
    80   41   97 1    
    81   41   98 1    
    82   41   99 1    
    83   42   43 2    
    84   42   44 am   BACKBONE|DICT|INTERRES
    85   44   45 1    
    86   44  100 1    
    87   45   46 1    
    88   45   47 1    
    89   45  101 1    
    90   46  102 1    
    91   46  103 1    
    92   46  104 1    
    93   47   48 2    
    94   47   49 am   BACKBONE|DICT|INTERRES
    95   49   50 1    
    96   49  105 1    
    97   50   51 1    
    98   50   52 1    
    99   50  106 1    
   100   51  107 1    
   101   51  108 1    
   102   51  109 1    
   103   52   53 2    
   104   52   54 am   BACKBONE|DICT|INTERRES
   105   54   55 1    
   106   54  110 1    
   107   55   56 1    
   108   55   59 1    
   109   55  111 1    
   110   56   57 am   BACKBONE|DICT|INTERRES
   111   56   58 2    
   112   57  112 1    
   113   57  113 1    
   114   59   60 1    
   115   59  114 1    
   116   59  115 1    
   117   60   61 1    
   118   61  116 1    
   119   61  117 1    
@<TRIPOS>SUBSTRUCTURE
     1 UNK         1 GROUP             0       ****    0 ROOT    
