@<TRIPOS>MOLECULE
3R8
117   119    1
SMALL
USER_CHARGES


@<TRIPOS>ATOM
      1 CA         19.2438  -28.2042  -41.9518 C.3       0 UNK        -0.2013 
      2 C          18.5964  -26.9208  -42.4422 C.2       0 UNK         0.4866 
      3 O          18.9910  -25.8365  -42.0139 O.2       0 UNK        -0.5176 
      4 N          17.5952  -27.0347  -43.3237 N.am      1 UNK        -0.4884 
      5 CA         16.8042  -25.9101  -43.8405 C.3       1 UNK         0.0853 
      6 C6         15.5260  -26.3714  -44.5869 C.3       10 UNK        -0.0849 
      7 S7         14.5023  -27.5453  -43.6325 S.3       10 UNK        -0.2776 
      8 C8         14.5878  -29.0458  -44.6652 C.3       10 UNK         0.0316 
      9 C9         15.9034  -29.7924  -44.4882 C.ar      10 UNK        -0.0863 
     10 C10        16.0192  -30.7780  -43.5025 C.ar      10 UNK        -0.1009 
     11 C11        17.2107  -31.4926  -43.3513 C.ar      10 UNK        -0.0712 
     12 C12        18.2955  -31.2078  -44.1847 C.ar      10 UNK        -0.0894 
     13 C13        18.2022  -30.2074  -45.1559 C.ar      10 UNK        -0.0745 
     14 C14        16.9966  -29.5171  -45.3172 C.ar      10 UNK        -0.0972 
     15 C15        19.4026  -29.8786  -46.0306 C.3       10 UNK         0.0209 
     16 S16        20.7724  -29.1805  -45.0529 S.3       10 UNK        -0.2568 
     17 C17        21.9109  -28.6637  -46.3829 C.3       10 UNK        -0.0983 
     18 CA         22.4073  -27.1921  -46.2569 C.3       3 UNK         0.0876 
     19 N          21.3337  -26.2204  -46.0527 N.am      3 UNK        -0.4424 
     20 C          20.4619  -25.8403  -46.9897 C.2       2 UNK         0.4918 
     21 O          20.4714  -26.2635  -48.1471 O.2       2 UNK        -0.4875 
     22 CA         19.3679  -24.8667  -46.5324 C.3       2 UNK         0.0481 
     23 CB         18.5181  -24.3366  -47.7086 C.3       2 UNK        -0.1831 
     24 N          18.5288  -25.5504  -45.5492 N.am      2 UNK        -0.4498 
     25 C          17.6250  -24.9706  -44.7480 C.2       1 UNK         0.5027 
     26 O          17.4134  -23.7573  -44.7131 O.2       1 UNK        -0.4969 
     27 C          23.5283  -26.9355  -45.2295 C.2       3 UNK         0.5005 
     28 O          23.8910  -25.7743  -45.0233 O.2       3 UNK        -0.5279 
     29 N          24.0961  -28.0030  -44.6518 N.am      4 UNK        -0.4463 
     30 CA         25.2715  -27.9797  -43.7769 C.3       4 UNK         0.0283 
     31 CB         25.6950  -29.4258  -43.4692 C.3       4 UNK        -0.1875 
     32 C          25.0546  -27.2127  -42.4622 C.2       4 UNK         0.4949 
     33 O          23.9476  -27.2116  -41.9176 O.2       4 UNK        -0.5039 
     34 N          26.1451  -26.6268  -41.9490 N.am      5 UNK        -0.4663 
     35 CA         26.2139  -26.0035  -40.6255 C.3       5 UNK         0.0242 
     36 CB         27.5658  -25.2892  -40.4668 C.3       5 UNK        -0.1982 
     37 C          26.0184  -27.0513  -39.5167 C.2       5 UNK         0.5017 
     38 O          26.5659  -28.1510  -39.6216 O.2       5 UNK        -0.5012 
     39 N          25.2214  -26.6929  -38.5001 N.am      6 UNK        -0.4439 
     40 CA         24.7258  -27.5590  -37.4181 C.3       6 UNK         0.0297 
     41 CB         25.8822  -28.1014  -36.5498 C.3       6 UNK        -0.2006 
     42 C          23.7664  -28.6730  -37.8994 C.2       6 UNK         0.4892 
     43 O          23.5304  -29.6227  -37.1510 O.2       6 UNK        -0.5089 
     44 N          23.2057  -28.4971  -39.1075 N.am      7 UNK        -0.4243 
     45 CA         22.2692  -29.3497  -39.8454 C.3       7 UNK         0.0196 
     46 CB         21.0147  -29.6812  -39.0123 C.3       7 UNK        -0.2007 
     47 C          22.9113  -30.6239  -40.4186 C.2       7 UNK         0.5020 
     48 O          23.7427  -31.2631  -39.7735 O.2       7 UNK        -0.5147 
     49 N          22.4586  -31.0065  -41.6200 N.am      8 UNK        -0.4734 
     50 CA         22.8257  -32.2639  -42.2850 C.3       8 UNK         0.0238 
     51 CB         22.7187  -32.0711  -43.8082 C.3       8 UNK        -0.1912 
     52 C          21.9540  -33.4550  -41.8378 C.2       8 UNK         0.5038 
     53 O          22.1905  -34.5745  -42.2930 O.2       8 UNK        -0.5046 
     54 N          20.9454  -33.1916  -40.9967 N.am      9 UNK        -0.4200 
     55 CA         19.9030  -34.1368  -40.5676 C.3       9 UNK         0.0839 
     56 C          20.3849  -35.2935  -39.6446 C.2       9 UNK         0.5513 
     57 N          21.5874  -35.2426  -39.0848 N.am      9 UNK        -0.7519 
     58 O          19.6497  -36.2545  -39.4336 O.2       9 UNK        -0.4960 
     59 C59        18.6776  -33.4097  -39.9409 C.3       10 UNK        -0.0876 
     60 S60        18.1711  -31.8872  -40.8149 S.3       10 UNK        -0.2414 
     61 C61        17.3422  -32.5633  -42.2816 C.3       10 UNK         0.0169 
     62 H62        18.7489  -29.0888  -42.3499 H         1 UNK         0.0903 
     63 H63        20.2886  -28.2288  -42.2559 H         1 UNK         0.0903 
     64 H64        19.1967  -28.2520  -40.8649 H         1 UNK         0.0903 
     65 H65        17.2886  -27.9547  -43.6146 H         1 UNK         0.3096 
     66 H66        16.4887  -25.3188  -42.9776 H         1 UNK         0.1121 
     67 H67        14.8997  -25.5062  -44.8139 H         1 UNK         0.0849 
     68 H68        15.7767  -26.8081  -45.5544 H         1 UNK         0.0849 
     69 H69        13.7581  -29.7003  -44.3936 H         1 UNK         0.0865 
     70 H70        14.4292  -28.7891  -45.7139 H         1 UNK         0.0865 
     71 H71        15.1799  -30.9919  -42.8545 H         1 UNK         0.1346 
     72 H72        19.2230  -31.7495  -44.0603 H         1 UNK         0.1412 
     73 H73        16.9114  -28.7633  -46.0876 H         1 UNK         0.1426 
     74 H74        19.1213  -29.1705  -46.8119 H         1 UNK         0.0716 
     75 H75        19.7439  -30.7831  -46.5359 H         1 UNK         0.0716 
     76 H76        21.3971  -28.7697  -47.3393 H         1 UNK         0.0695 
     77 H77        22.7394  -29.3708  -46.4438 H         1 UNK         0.0695 
     78 H78        22.8785  -26.9445  -47.2111 H         1 UNK         0.0983 
     79 H79        21.2950  -25.8054  -45.1318 H         1 UNK         0.3095 
     80 H80        19.8613  -24.0212  -46.0489 H         1 UNK         0.0454 
     81 H81        19.1497  -23.8789  -48.4710 H         1 UNK         0.0851 
     82 H82        17.8096  -23.5745  -47.3852 H         1 UNK         0.0851 
     83 H83        17.9530  -25.1360  -48.1891 H         1 UNK         0.0851 
     84 H84        18.6646  -26.5497  -45.4746 H         1 UNK         0.2976 
     85 H85        23.6904  -28.9080  -44.8375 H         1 UNK         0.3116 
     86 H86        26.0768  -27.4935  -44.3317 H         1 UNK         0.0646 
     87 H87        24.9385  -29.9500  -42.8846 H         1 UNK         0.0847 
     88 H88        25.8767  -29.9958  -44.3804 H         1 UNK         0.0847 
     89 H89        26.6176  -29.4468  -42.8873 H         1 UNK         0.0847 
     90 H90        27.0193  -26.7143  -42.4469 H         1 UNK         0.3040 
     91 H91        25.4156  -25.2603  -40.5645 H         1 UNK         0.1015 
     92 H92        27.6337  -24.7936  -39.4973 H         1 UNK         0.0786 
     93 H93        27.7034  -24.5236  -41.2307 H         1 UNK         0.0786 
     94 H94        28.4018  -25.9867  -40.5347 H         1 UNK         0.0786 
     95 H95        24.8397  -25.7559  -38.5048 H         1 UNK         0.3172 
     96 H96        24.1227  -26.9118  -36.7796 H         1 UNK         0.0595 
     97 H97        26.4787  -28.8424  -37.0825 H         1 UNK         0.0839 
     98 H98        25.5003  -28.5849  -35.6498 H         1 UNK         0.0839 
     99 H99        26.5480  -27.3011  -36.2273 H         1 UNK         0.0839 
    100 H100       23.5247  -27.6974  -39.6389 H         1 UNK         0.2998 
    101 H101       21.9541  -28.7361  -40.6894 H         1 UNK         0.0822 
    102 H102       20.2563  -30.1646  -39.6265 H         1 UNK         0.0787 
    103 H103       20.5651  -28.7808  -38.5939 H         1 UNK         0.0787 
    104 H104       21.2380  -30.3597  -38.1885 H         1 UNK         0.0787 
    105 H105       21.7776  -30.4315  -42.0964 H         1 UNK         0.3055 
    106 H106       23.8621  -32.5112  -42.0434 H         1 UNK         0.1106 
    107 H107       23.3167  -31.2289  -44.1529 H         1 UNK         0.0828 
    108 H108       23.0753  -32.9548  -44.3392 H         1 UNK         0.0828 
    109 H109       21.6887  -31.9016  -44.1220 H         1 UNK         0.0828 
    110 H110       20.8285  -32.2421  -40.6799 H         1 UNK         0.2931 
    111 H111       19.5524  -34.6249  -41.4786 H         1 UNK         0.0412 
    112 H112       21.8897  -35.9986  -38.4904 H         1 UNK         0.3472 
    113 H113       22.1974  -34.4592  -39.2569 H         1 UNK         0.3472 
    114 H114       17.8216  -34.0851  -39.8854 H         1 UNK         0.0970 
    115 H115       18.8989  -33.1236  -38.9108 H         1 UNK         0.0970 
    116 H116       16.3640  -32.9551  -41.9988 H         1 UNK         0.0612 
    117 H117       17.9126  -33.4031  -42.6799 H         1 UNK         0.0612 
@<TRIPOS>BOND
     1    1    2 1    
     2    1   62 1    
     3    1   63 1    
     4    1   64 1    
     5    2    3 2    
     6    2    4 am   BACKBONE|DICT|INTERRES
     7    4    5 1    
     8    4   65 1    
     9    5    6 1    
    10    5   25 1    
    11    5   66 1    
    12    6    7 1    
    13    6   67 1    
    14    6   68 1    
    15    7    8 1    
    16    8    9 1    
    17    8   69 1    
    18    8   70 1    
    19    9   10 ar   
    20    9   14 ar   
    21   10   11 ar   
    22   10   71 1    
    23   11   12 ar   
    24   11   61 1    
    25   12   13 ar   
    26   12   72 1    
    27   13   14 ar   
    28   13   15 1    
    29   14   73 1    
    30   15   16 1    
    31   15   74 1    
    32   15   75 1    
    33   16   17 1    
    34   17   18 1    
    35   17   76 1    
    36   17   77 1    
    37   18   19 1    
    38   18   27 1    
    39   18   78 1    
    40   19   20 am   BACKBONE|DICT|INTERRES
    41   19   79 1    
    42   20   21 2    
    43   20   22 1    
    44   22   23 1    
    45   22   24 1    
    46   22   80 1    
    47   23   81 1    
    48   23   82 1    
    49   23   83 1    
    50   24   25 am   BACKBONE|DICT|INTERRES
    51   24   84 1    
    52   25   26 2    
    53   27   28 2    
    54   27   29 am   BACKBONE|DICT|INTERRES
    55   29   30 1    
    56   29   85 1    
    57   30   31 1    
    58   30   32 1    
    59   30   86 1    
    60   31   87 1    
    61   31   88 1    
    62   31   89 1    
    63   32   33 2    
    64   32   34 am   BACKBONE|DICT|INTERRES
    65   34   35 1    
    66   34   90 1    
    67   35   36 1    
    68   35   37 1    
    69   35   91 1    
    70   36   92 1    
    71   36   93 1    
    72   36   94 1    
    73   37   38 2    
    74   37   39 am   BACKBONE|DICT|INTERRES
    75   39   40 1    
    76   39   95 1    
    77   40   41 1    
    78   40   42 1    
    79   40   96 1    
    80   41   97 1    
    81   41   98 1    
    82   41   99 1    
    83   42   43 2    
    84   42   44 am   BACKBONE|DICT|INTERRES
    85   44   45 1    
    86   44  100 1    
    87   45   46 1    
    88   45   47 1    
    89   45  101 1    
    90   46  102 1    
    91   46  103 1    
    92   46  104 1    
    93   47   48 2    
    94   47   49 am   BACKBONE|DICT|INTERRES
    95   49   50 1    
    96   49  105 1    
    97   50   51 1    
    98   50   52 1    
    99   50  106 1    
   100   51  107 1    
   101   51  108 1    
   102   51  109 1    
   103   52   53 2    
   104   52   54 am   BACKBONE|DICT|INTERRES
   105   54   55 1    
   106   54  110 1    
   107   55   56 1    
   108   55   59 1    
   109   55  111 1    
   110   56   57 am   BACKBONE|DICT|INTERRES
   111   56   58 2    
   112   57  112 1    
   113   57  113 1    
   114   59   60 1    
   115   59  114 1    
   116   59  115 1    
   117   60   61 1    
   118   61  116 1    
   119   61  117 1    
@<TRIPOS>SUBSTRUCTURE
     1 UNK         1 GROUP             0       ****    0 ROOT    
