@<TRIPOS>MOLECULE
3R8
117   119    1
SMALL
USER_CHARGES


@<TRIPOS>ATOM
      1 CA         14.9723  -23.4460  -45.5970 C.3       0 UNK        -0.2013 
      2 C          16.3094  -24.1149  -45.8783 C.2       0 UNK         0.4866 
      3 O          17.1569  -23.5292  -46.5524 O.2       0 UNK        -0.5176 
      4 N          16.5041  -25.3381  -45.3683 N.am      1 UNK        -0.4884 
      5 CA         17.7264  -26.1343  -45.5458 C.3       1 UNK         0.0853 
      6 C6         17.5045  -27.6128  -45.1585 C.3       10 UNK        -0.0849 
      7 S7         16.3576  -28.4990  -46.2738 S.3       10 UNK        -0.2776 
      8 C8         16.1259  -30.1034  -45.4200 C.3       10 UNK         0.0316 
      9 C9         17.4075  -30.5837  -44.7535 C.ar      10 UNK        -0.0863 
     10 C10        18.4400  -31.1385  -45.5126 C.ar      10 UNK        -0.1009 
     11 C11        19.6728  -31.4395  -44.9255 C.ar      10 UNK        -0.0712 
     12 C12        19.8643  -31.1646  -43.5637 C.ar      10 UNK        -0.0894 
     13 C13        18.8330  -30.6244  -42.7875 C.ar      10 UNK        -0.0745 
     14 C14        17.5948  -30.3736  -43.3861 C.ar      10 UNK        -0.0972 
     15 C15        19.0765  -30.2937  -41.3162 C.3       10 UNK         0.0209 
     16 S16        18.2962  -28.7212  -40.8017 S.3       10 UNK        -0.2568 
     17 C17        19.5262  -28.0461  -39.6401 C.3       10 UNK        -0.0983 
     18 CA         20.5632  -27.1508  -40.3616 C.3       3 UNK         0.0876 
     19 N          19.9322  -26.0528  -41.1160 N.am      3 UNK        -0.4424 
     20 C          20.5299  -25.3155  -42.0611 C.2       2 UNK         0.4918 
     21 O          21.7162  -25.4441  -42.3693 O.2       2 UNK        -0.4875 
     22 CA         19.6548  -24.2499  -42.7462 C.3       2 UNK         0.0481 
     23 CB         20.4939  -23.1605  -43.4477 C.3       2 UNK        -0.1831 
     24 N          18.6819  -24.8455  -43.6702 N.am      2 UNK        -0.4498 
     25 C          18.9394  -25.5755  -44.7690 C.2       1 UNK         0.5027 
     26 O          20.0715  -25.8277  -45.1822 O.2       1 UNK        -0.4969 
     27 C          21.6931  -26.7068  -39.4008 C.2       3 UNK         0.5005 
     28 O          22.3568  -27.5598  -38.8107 O.2       3 UNK        -0.5279 
     29 N          21.9254  -25.3923  -39.2738 N.am      4 UNK        -0.4463 
     30 CA         23.1364  -24.8225  -38.6790 C.3       4 UNK         0.0283 
     31 CB         22.9134  -23.3258  -38.4090 C.3       4 UNK        -0.1875 
     32 C          24.3802  -25.0288  -39.5681 C.2       4 UNK         0.4949 
     33 O          25.4894  -25.0896  -39.0374 O.2       4 UNK        -0.5039 
     34 N          24.1771  -25.1293  -40.8901 N.am      5 UNK        -0.4663 
     35 CA         25.2165  -25.3779  -41.8886 C.3       5 UNK         0.0242 
     36 CB         25.0947  -24.3399  -43.0173 C.3       5 UNK        -0.1982 
     37 C          25.1135  -26.8032  -42.4512 C.2       5 UNK         0.5017 
     38 O          26.1366  -27.4813  -42.5514 O.2       5 UNK        -0.5012 
     39 N          23.8954  -27.2355  -42.8117 N.am      6 UNK        -0.4439 
     40 CA         23.6102  -28.5752  -43.3298 C.3       6 UNK         0.0297 
     41 CB         22.2329  -28.5793  -44.0125 C.3       6 UNK        -0.2006 
     42 C          23.6859  -29.6128  -42.1983 C.2       6 UNK         0.4892 
     43 O          22.9028  -29.5340  -41.2514 O.2       6 UNK        -0.5089 
     44 N          24.6396  -30.5463  -42.3007 N.am      7 UNK        -0.4243 
     45 CA         25.0235  -31.5008  -41.2550 C.3       7 UNK         0.0196 
     46 CB         26.4330  -32.0343  -41.5748 C.3       7 UNK        -0.2007 
     47 C          24.0027  -32.6352  -41.0276 C.2       7 UNK         0.5020 
     48 O          24.3358  -33.8073  -41.2133 O.2       7 UNK        -0.5147 
     49 N          22.7810  -32.2658  -40.6206 N.am      8 UNK        -0.4734 
     50 CA         21.6264  -33.0943  -40.2301 C.3       8 UNK         0.0238 
     51 CB         21.9596  -33.9815  -39.0149 C.3       8 UNK        -0.1912 
     52 C          20.9976  -33.9280  -41.3624 C.2       8 UNK         0.5038 
     53 O          19.7711  -33.9594  -41.4645 O.2       8 UNK        -0.5046 
     54 N          21.8370  -34.5602  -42.1888 N.am      9 UNK        -0.4200 
     55 CA         21.4899  -35.3660  -43.3690 C.3       9 UNK         0.0839 
     56 C          20.6558  -36.6391  -43.0254 C.2       9 UNK         0.5513 
     57 N          19.9791  -37.2454  -43.9928 N.am      9 UNK        -0.7519 
     58 O          20.6603  -37.1264  -41.8962 O.2       9 UNK        -0.4960 
     59 C59        20.8935  -34.5026  -44.5199 C.3       10 UNK        -0.0876 
     60 S60        21.9720  -33.0962  -44.9644 S.3       10 UNK        -0.2414 
     61 C61        20.7893  -31.9956  -45.8098 C.3       10 UNK         0.0169 
     62 H62        14.4595  -23.2253  -46.5328 H         1 UNK         0.0903 
     63 H63        14.3191  -24.0759  -44.9933 H         1 UNK         0.0903 
     64 H64        15.1267  -22.5082  -45.0638 H         1 UNK         0.0903 
     65 H65        15.7613  -25.7859  -44.8497 H         1 UNK         0.3096 
     66 H66        17.9972  -26.0981  -46.6038 H         1 UNK         0.1121 
     67 H67        18.4566  -28.1483  -45.1839 H         1 UNK         0.0849 
     68 H68        17.1380  -27.6851  -44.1327 H         1 UNK         0.0849 
     69 H69        15.3289  -29.9996  -44.6821 H         1 UNK         0.0865 
     70 H70        15.7795  -30.8473  -46.1388 H         1 UNK         0.0865 
     71 H71        18.2958  -31.2928  -46.5734 H         1 UNK         0.1346 
     72 H72        20.8242  -31.3579  -43.1061 H         1 UNK         0.1412 
     73 H73        16.7926  -29.9449  -42.8017 H         1 UNK         0.1426 
     74 H74        20.1497  -30.2358  -41.1287 H         1 UNK         0.0716 
     75 H75        18.6925  -31.1055  -40.6974 H         1 UNK         0.0716 
     76 H76        20.0118  -28.8760  -39.1226 H         1 UNK         0.0695 
     77 H77        18.9981  -27.4758  -38.8739 H         1 UNK         0.0695 
     78 H78        21.0591  -27.7780  -41.1018 H         1 UNK         0.0983 
     79 H79        18.9517  -25.9008  -40.9274 H         1 UNK         0.3095 
     80 H80        19.0770  -23.7583  -41.9621 H         1 UNK         0.0454 
     81 H81        21.1215  -23.5703  -44.2397 H         1 UNK         0.0851 
     82 H82        21.1569  -22.6640  -42.7383 H         1 UNK         0.0851 
     83 H83        19.8579  -22.3936  -43.8894 H         1 UNK         0.0851 
     84 H84        17.7095  -24.7081  -43.4324 H         1 UNK         0.2976 
     85 H85        21.3104  -24.7546  -39.7570 H         1 UNK         0.3116 
     86 H86        23.3211  -25.3193  -37.7240 H         1 UNK         0.0646 
     87 H87        22.7212  -22.7714  -39.3285 H         1 UNK         0.0847 
     88 H88        23.7919  -22.8808  -37.9394 H         1 UNK         0.0847 
     89 H89        22.0719  -23.1640  -37.7351 H         1 UNK         0.0847 
     90 H90        23.2255  -25.0996  -41.2421 H         1 UNK         0.3040 
     91 H91        26.2071  -25.2724  -41.4400 H         1 UNK         0.1015 
     92 H92        24.1202  -24.3809  -43.5061 H         1 UNK         0.0786 
     93 H93        25.8528  -24.5059  -43.7839 H         1 UNK         0.0786 
     94 H94        25.2344  -23.3276  -42.6377 H         1 UNK         0.0786 
     95 H95        23.0995  -26.6128  -42.6952 H         1 UNK         0.3172 
     96 H96        24.3581  -28.8145  -44.0889 H         1 UNK         0.0595 
     97 H97        21.4196  -28.3992  -43.3095 H         1 UNK         0.0839 
     98 H98        22.0457  -29.5404  -44.4895 H         1 UNK         0.0839 
     99 H99        22.1710  -27.8173  -44.7898 H         1 UNK         0.0839 
    100 H100       25.2181  -30.5449  -43.1285 H         1 UNK         0.2998 
    101 H101       25.0911  -30.9523  -40.3128 H         1 UNK         0.0822 
    102 H102       27.1592  -31.2237  -41.6405 H         1 UNK         0.0787 
    103 H103       26.7811  -32.7140  -40.7956 H         1 UNK         0.0787 
    104 H104       26.4530  -32.5816  -42.5182 H         1 UNK         0.0787 
    105 H105       22.6234  -31.2593  -40.5936 H         1 UNK         0.3055 
    106 H106       20.8585  -32.3887  -39.9098 H         1 UNK         0.1106 
    107 H107       21.0752  -34.5223  -38.6752 H         1 UNK         0.0828 
    108 H108       22.7218  -34.7256  -39.2478 H         1 UNK         0.0828 
    109 H109       22.3172  -33.3860  -38.1750 H         1 UNK         0.0828 
    110 H110       22.8293  -34.4717  -41.9843 H         1 UNK         0.2931 
    111 H111       22.4447  -35.7562  -43.7231 H         1 UNK         0.0412 
    112 H112       19.9795  -36.8931  -44.9367 H         1 UNK         0.3472 
    113 H113       19.4592  -38.0809  -43.7726 H         1 UNK         0.3472 
    114 H114       19.9057  -34.1340  -44.2381 H         1 UNK         0.0970 
    115 H115       20.7541  -35.0970  -45.4235 H         1 UNK         0.0970 
    116 H116       21.3416  -31.1574  -46.2355 H         1 UNK         0.0612 
    117 H117       20.3631  -32.5427  -46.6522 H         1 UNK         0.0612 
@<TRIPOS>BOND
     1    1    2 1    
     2    1   62 1    
     3    1   63 1    
     4    1   64 1    
     5    2    3 2    
     6    2    4 am   BACKBONE|DICT|INTERRES
     7    4    5 1    
     8    4   65 1    
     9    5    6 1    
    10    5   25 1    
    11    5   66 1    
    12    6    7 1    
    13    6   67 1    
    14    6   68 1    
    15    7    8 1    
    16    8    9 1    
    17    8   69 1    
    18    8   70 1    
    19    9   10 ar   
    20    9   14 ar   
    21   10   11 ar   
    22   10   71 1    
    23   11   12 ar   
    24   11   61 1    
    25   12   13 ar   
    26   12   72 1    
    27   13   14 ar   
    28   13   15 1    
    29   14   73 1    
    30   15   16 1    
    31   15   74 1    
    32   15   75 1    
    33   16   17 1    
    34   17   18 1    
    35   17   76 1    
    36   17   77 1    
    37   18   19 1    
    38   18   27 1    
    39   18   78 1    
    40   19   20 am   BACKBONE|DICT|INTERRES
    41   19   79 1    
    42   20   21 2    
    43   20   22 1    
    44   22   23 1    
    45   22   24 1    
    46   22   80 1    
    47   23   81 1    
    48   23   82 1    
    49   23   83 1    
    50   24   25 am   BACKBONE|DICT|INTERRES
    51   24   84 1    
    52   25   26 2    
    53   27   28 2    
    54   27   29 am   BACKBONE|DICT|INTERRES
    55   29   30 1    
    56   29   85 1    
    57   30   31 1    
    58   30   32 1    
    59   30   86 1    
    60   31   87 1    
    61   31   88 1    
    62   31   89 1    
    63   32   33 2    
    64   32   34 am   BACKBONE|DICT|INTERRES
    65   34   35 1    
    66   34   90 1    
    67   35   36 1    
    68   35   37 1    
    69   35   91 1    
    70   36   92 1    
    71   36   93 1    
    72   36   94 1    
    73   37   38 2    
    74   37   39 am   BACKBONE|DICT|INTERRES
    75   39   40 1    
    76   39   95 1    
    77   40   41 1    
    78   40   42 1    
    79   40   96 1    
    80   41   97 1    
    81   41   98 1    
    82   41   99 1    
    83   42   43 2    
    84   42   44 am   BACKBONE|DICT|INTERRES
    85   44   45 1    
    86   44  100 1    
    87   45   46 1    
    88   45   47 1    
    89   45  101 1    
    90   46  102 1    
    91   46  103 1    
    92   46  104 1    
    93   47   48 2    
    94   47   49 am   BACKBONE|DICT|INTERRES
    95   49   50 1    
    96   49  105 1    
    97   50   51 1    
    98   50   52 1    
    99   50  106 1    
   100   51  107 1    
   101   51  108 1    
   102   51  109 1    
   103   52   53 2    
   104   52   54 am   BACKBONE|DICT|INTERRES
   105   54   55 1    
   106   54  110 1    
   107   55   56 1    
   108   55   59 1    
   109   55  111 1    
   110   56   57 am   BACKBONE|DICT|INTERRES
   111   56   58 2    
   112   57  112 1    
   113   57  113 1    
   114   59   60 1    
   115   59  114 1    
   116   59  115 1    
   117   60   61 1    
   118   61  116 1    
   119   61  117 1    
@<TRIPOS>SUBSTRUCTURE
     1 UNK         1 GROUP             0       ****    0 ROOT    
