@<TRIPOS>MOLECULE
3R8
117   119    1
SMALL
USER_CHARGES


@<TRIPOS>ATOM
      1 CA         17.2235  -23.2344  -47.5081 C.3       0 UNK        -0.2013 
      2 C          17.2651  -24.2954  -46.4186 C.2       0 UNK         0.4866 
      3 O          18.0875  -24.2044  -45.5072 O.2       0 UNK        -0.5176 
      4 N          16.3900  -25.3043  -46.5102 N.am      1 UNK        -0.4884 
      5 CA         16.2706  -26.3953  -45.5367 C.3       1 UNK         0.0853 
      6 C6         15.4178  -27.5659  -46.0857 C.3       10 UNK        -0.0849 
      7 S7         16.0856  -28.2673  -47.6297 S.3       10 UNK        -0.2776 
      8 C8         16.6582  -29.9055  -47.0737 C.3       10 UNK         0.0316 
      9 C9         17.8775  -29.8336  -46.1619 C.ar      10 UNK        -0.0863 
     10 C10        17.8614  -30.4536  -44.9077 C.ar      10 UNK        -0.1009 
     11 C11        19.0042  -30.4625  -44.1001 C.ar      10 UNK        -0.0712 
     12 C12        20.1727  -29.8497  -44.5676 C.ar      10 UNK        -0.0894 
     13 C13        20.1893  -29.1908  -45.7982 C.ar      10 UNK        -0.0745 
     14 C14        19.0426  -29.1940  -46.5948 C.ar      10 UNK        -0.0972 
     15 C15        21.4471  -28.4843  -46.2761 C.3       10 UNK         0.0209 
     16 S16        21.4442  -26.7296  -45.7920 S.3       10 UNK        -0.2568 
     17 C17        21.9159  -26.8158  -44.0322 C.3       10 UNK        -0.0983 
     18 CA         20.8471  -26.2134  -43.0882 C.3       3 UNK         0.0876 
     19 N          19.5554  -26.9125  -43.1534 N.am      3 UNK        -0.4424 
     20 C          18.4264  -26.4353  -42.6114 C.2       2 UNK         0.4918 
     21 O          18.3590  -25.3755  -41.9847 O.2       2 UNK        -0.4875 
     22 CA         17.1563  -27.2858  -42.7697 C.3       2 UNK         0.0481 
     23 CB         16.8718  -28.0659  -41.4768 C.3       2 UNK        -0.1831 
     24 N          16.0153  -26.4106  -43.0415 N.am      2 UNK        -0.4498 
     25 C          15.6427  -25.8844  -44.2166 C.2       1 UNK         0.5027 
     26 O          14.7487  -25.0380  -44.2753 O.2       1 UNK        -0.4969 
     27 C          21.4002  -26.1321  -41.6503 C.2       3 UNK         0.5005 
     28 O          22.0016  -25.1168  -41.2964 O.2       3 UNK        -0.5279 
     29 N          21.1956  -27.1987  -40.8588 N.am      4 UNK        -0.4463 
     30 CA         21.5382  -27.3885  -39.4387 C.3       4 UNK         0.0283 
     31 CB         20.7847  -26.3818  -38.5489 C.3       4 UNK        -0.1875 
     32 C          23.0441  -27.3950  -39.1072 C.2       4 UNK         0.4949 
     33 O          23.4796  -28.2320  -38.3177 O.2       4 UNK        -0.5039 
     34 N          23.8121  -26.4782  -39.7062 N.am      5 UNK        -0.4663 
     35 CA         25.2678  -26.3635  -39.5701 C.3       5 UNK         0.0242 
     36 CB         25.6831  -24.9226  -39.9098 C.3       5 UNK        -0.1982 
     37 C          26.0377  -27.3673  -40.4487 C.2       5 UNK         0.5017 
     38 O          27.2312  -27.5733  -40.2235 O.2       5 UNK        -0.5012 
     39 N          25.3525  -27.9576  -41.4369 N.am      6 UNK        -0.4439 
     40 CA         25.8621  -29.0108  -42.3155 C.3       6 UNK         0.0297 
     41 CB         24.8922  -29.1693  -43.5006 C.3       6 UNK        -0.2006 
     42 C          26.0139  -30.3505  -41.5741 C.2       6 UNK         0.4892 
     43 O          25.3985  -30.5525  -40.5246 O.2       6 UNK        -0.5089 
     44 N          26.7767  -31.2753  -42.1718 N.am      7 UNK        -0.4243 
     45 CA         26.9070  -32.6700  -41.7336 C.3       7 UNK         0.0196 
     46 CB         28.2240  -33.2473  -42.2859 C.3       7 UNK        -0.2007 
     47 C          25.6719  -33.4948  -42.1532 C.2       7 UNK         0.5020 
     48 O          25.7847  -34.4322  -42.9449 O.2       7 UNK        -0.5147 
     49 N          24.5049  -33.0937  -41.6445 N.am      8 UNK        -0.4734 
     50 CA         23.1782  -33.6103  -41.9636 C.3       8 UNK         0.0238 
     51 CB         22.7316  -33.0667  -43.3403 C.3       8 UNK        -0.1912 
     52 C          22.2100  -33.1961  -40.8429 C.2       8 UNK         0.5038 
     53 O          22.6466  -32.6662  -39.8177 O.2       8 UNK        -0.5046 
     54 N          20.9115  -33.4247  -41.0733 N.am      9 UNK        -0.4200 
     55 CA         19.7857  -32.9866  -40.2269 C.3       9 UNK         0.0839 
     56 C          19.6197  -33.7834  -38.8977 C.2       9 UNK         0.5513 
     57 N          20.2785  -34.9225  -38.7216 N.am      9 UNK        -0.7519 
     58 O          18.8561  -33.3822  -38.0230 O.2       9 UNK        -0.4960 
     59 C59        19.7343  -31.4418  -39.9998 C.3       10 UNK        -0.0876 
     60 S60        19.9958  -30.3861  -41.4725 S.3       10 UNK        -0.2414 
     61 C61        18.9709  -31.1851  -42.7562 C.3       10 UNK         0.0169 
     62 H62        17.0081  -22.2588  -47.0731 H         1 UNK         0.0903 
     63 H63        18.1876  -23.1776  -48.0127 H         1 UNK         0.0903 
     64 H64        16.4610  -23.4479  -48.2570 H         1 UNK         0.0903 
     65 H65        15.7299  -25.3288  -47.2742 H         1 UNK         0.3096 
     66 H66        17.2847  -26.7551  -45.3609 H         1 UNK         0.1121 
     67 H67        14.3960  -27.2358  -46.2845 H         1 UNK         0.0849 
     68 H68        15.3346  -28.3591  -45.3398 H         1 UNK         0.0849 
     69 H69        15.8328  -30.4296  -46.5891 H         1 UNK         0.0865 
     70 H70        16.9184  -30.4987  -47.9514 H         1 UNK         0.0865 
     71 H71        16.9642  -30.9535  -44.5683 H         1 UNK         0.1346 
     72 H72        21.0740  -29.8828  -43.9726 H         1 UNK         0.1412 
     73 H73        19.0586  -28.7048  -47.5596 H         1 UNK         0.1426 
     74 H74        21.5127  -28.5466  -47.3634 H         1 UNK         0.0716 
     75 H75        22.3413  -28.9776  -45.8914 H         1 UNK         0.0716 
     76 H76        22.8568  -26.2703  -43.9339 H         1 UNK         0.0695 
     77 H77        22.1398  -27.8448  -43.7524 H         1 UNK         0.0695 
     78 H78        20.6679  -25.1842  -43.4095 H         1 UNK         0.0983 
     79 H79        19.5365  -27.7770  -43.6774 H         1 UNK         0.3095 
     80 H80        17.2858  -28.0106  -43.5730 H         1 UNK         0.0454 
     81 H81        17.7035  -28.7183  -41.2182 H         1 UNK         0.0851 
     82 H82        15.9889  -28.6967  -41.5805 H         1 UNK         0.0851 
     83 H83        16.7113  -27.4005  -40.6274 H         1 UNK         0.0851 
     84 H84        15.5685  -26.0388  -42.2161 H         1 UNK         0.2976 
     85 H85        20.7186  -27.9879  -41.2758 H         1 UNK         0.3116 
     86 H86        21.1663  -28.3829  -39.1856 H         1 UNK         0.0646 
     87 H87        21.0996  -25.3550  -38.7370 H         1 UNK         0.0847 
     88 H88        19.7084  -26.4369  -38.7127 H         1 UNK         0.0847 
     89 H89        20.9630  -26.5864  -37.4924 H         1 UNK         0.0847 
     90 H90        23.3418  -25.8102  -40.3163 H         1 UNK         0.3040 
     91 H91        25.5408  -26.5655  -38.5318 H         1 UNK         0.1015 
     92 H92        26.7597  -24.7876  -39.7958 H         1 UNK         0.0786 
     93 H93        25.1963  -24.2041  -39.2499 H         1 UNK         0.0786 
     94 H94        25.4276  -24.6610  -40.9375 H         1 UNK         0.0786 
     95 H95        24.3679  -27.7503  -41.4972 H         1 UNK         0.3172 
     96 H96        26.8407  -28.7058  -42.6923 H         1 UNK         0.0595 
     97 H97        23.9068  -29.5035  -43.1727 H         1 UNK         0.0839 
     98 H98        25.2596  -29.9058  -44.2165 H         1 UNK         0.0839 
     99 H99        24.7690  -28.2319  -44.0435 H         1 UNK         0.0839 
    100 H100       27.2192  -31.0414  -43.0492 H         1 UNK         0.2998 
    101 H101       26.9629  -32.6974  -40.6430 H         1 UNK         0.0822 
    102 H102       28.3653  -34.2783  -41.9587 H         1 UNK         0.0787 
    103 H103       29.0845  -32.6773  -41.9350 H         1 UNK         0.0787 
    104 H104       28.2419  -33.2455  -43.3766 H         1 UNK         0.0787 
    105 H105       24.5071  -32.3296  -40.9710 H         1 UNK         0.3055 
    106 H106       23.2183  -34.7014  -41.9904 H         1 UNK         0.1106 
    107 H107       23.4546  -33.3061  -44.1201 H         1 UNK         0.0828 
    108 H108       21.7805  -33.4959  -43.6559 H         1 UNK         0.0828 
    109 H109       22.6114  -31.9826  -43.3219 H         1 UNK         0.0828 
    110 H110       20.6504  -33.9031  -41.9225 H         1 UNK         0.2931 
    111 H111       18.8945  -33.2497  -40.7968 H         1 UNK         0.0412 
    112 H112       20.1565  -35.4368  -37.8631 H         1 UNK         0.3472 
    113 H113       20.9023  -35.2676  -39.4332 H         1 UNK         0.3472 
    114 H114       18.7712  -31.1638  -39.5680 H         1 UNK         0.0970 
    115 H115       20.4810  -31.1504  -39.2590 H         1 UNK         0.0970 
    116 H116       19.3147  -32.2047  -42.9240 H         1 UNK         0.0612 
    117 H117       17.9464  -31.2499  -42.3864 H         1 UNK         0.0612 
@<TRIPOS>BOND
     1    1    2 1    
     2    1   62 1    
     3    1   63 1    
     4    1   64 1    
     5    2    3 2    
     6    2    4 am   BACKBONE|DICT|INTERRES
     7    4    5 1    
     8    4   65 1    
     9    5    6 1    
    10    5   25 1    
    11    5   66 1    
    12    6    7 1    
    13    6   67 1    
    14    6   68 1    
    15    7    8 1    
    16    8    9 1    
    17    8   69 1    
    18    8   70 1    
    19    9   10 ar   
    20    9   14 ar   
    21   10   11 ar   
    22   10   71 1    
    23   11   12 ar   
    24   11   61 1    
    25   12   13 ar   
    26   12   72 1    
    27   13   14 ar   
    28   13   15 1    
    29   14   73 1    
    30   15   16 1    
    31   15   74 1    
    32   15   75 1    
    33   16   17 1    
    34   17   18 1    
    35   17   76 1    
    36   17   77 1    
    37   18   19 1    
    38   18   27 1    
    39   18   78 1    
    40   19   20 am   BACKBONE|DICT|INTERRES
    41   19   79 1    
    42   20   21 2    
    43   20   22 1    
    44   22   23 1    
    45   22   24 1    
    46   22   80 1    
    47   23   81 1    
    48   23   82 1    
    49   23   83 1    
    50   24   25 am   BACKBONE|DICT|INTERRES
    51   24   84 1    
    52   25   26 2    
    53   27   28 2    
    54   27   29 am   BACKBONE|DICT|INTERRES
    55   29   30 1    
    56   29   85 1    
    57   30   31 1    
    58   30   32 1    
    59   30   86 1    
    60   31   87 1    
    61   31   88 1    
    62   31   89 1    
    63   32   33 2    
    64   32   34 am   BACKBONE|DICT|INTERRES
    65   34   35 1    
    66   34   90 1    
    67   35   36 1    
    68   35   37 1    
    69   35   91 1    
    70   36   92 1    
    71   36   93 1    
    72   36   94 1    
    73   37   38 2    
    74   37   39 am   BACKBONE|DICT|INTERRES
    75   39   40 1    
    76   39   95 1    
    77   40   41 1    
    78   40   42 1    
    79   40   96 1    
    80   41   97 1    
    81   41   98 1    
    82   41   99 1    
    83   42   43 2    
    84   42   44 am   BACKBONE|DICT|INTERRES
    85   44   45 1    
    86   44  100 1    
    87   45   46 1    
    88   45   47 1    
    89   45  101 1    
    90   46  102 1    
    91   46  103 1    
    92   46  104 1    
    93   47   48 2    
    94   47   49 am   BACKBONE|DICT|INTERRES
    95   49   50 1    
    96   49  105 1    
    97   50   51 1    
    98   50   52 1    
    99   50  106 1    
   100   51  107 1    
   101   51  108 1    
   102   51  109 1    
   103   52   53 2    
   104   52   54 am   BACKBONE|DICT|INTERRES
   105   54   55 1    
   106   54  110 1    
   107   55   56 1    
   108   55   59 1    
   109   55  111 1    
   110   56   57 am   BACKBONE|DICT|INTERRES
   111   56   58 2    
   112   57  112 1    
   113   57  113 1    
   114   59   60 1    
   115   59  114 1    
   116   59  115 1    
   117   60   61 1    
   118   61  116 1    
   119   61  117 1    
@<TRIPOS>SUBSTRUCTURE
     1 UNK         1 GROUP             0       ****    0 ROOT    
