@<TRIPOS>MOLECULE
3R8
117   119    1
SMALL
USER_CHARGES


@<TRIPOS>ATOM
      1 CA         13.1966  -25.1686  -45.6631 C.3       0 UNK        -0.2013 
      2 C          14.5036  -25.7083  -45.1035 C.2       0 UNK         0.4866 
      3 O          15.3240  -24.9370  -44.6055 O.2       0 UNK        -0.5176 
      4 N          14.7000  -27.0317  -45.1573 N.am      1 UNK        -0.4884 
      5 CA         15.9106  -27.7527  -44.7300 C.3       1 UNK         0.0853 
      6 C6         16.0451  -29.1104  -45.4689 C.3       10 UNK        -0.0849 
      7 S7         16.2491  -28.8580  -47.2678 S.3       10 UNK        -0.2776 
      8 C8         17.8205  -29.7169  -47.6293 C.3       10 UNK         0.0316 
      9 C9         18.9913  -29.2916  -46.7456 C.ar      10 UNK        -0.0863 
     10 C10        19.8063  -30.2702  -46.1684 C.ar      10 UNK        -0.1009 
     11 C11        20.8968  -29.9149  -45.3700 C.ar      10 UNK        -0.0712 
     12 C12        21.1591  -28.5605  -45.1353 C.ar      10 UNK        -0.0894 
     13 C13        20.3511  -27.5679  -45.6986 C.ar      10 UNK        -0.0745 
     14 C14        19.2813  -27.9410  -46.5204 C.ar      10 UNK        -0.0972 
     15 C15        20.6530  -26.0957  -45.4424 C.3       10 UNK         0.0209 
     16 S16        19.2414  -25.2323  -44.6741 S.3       10 UNK        -0.2568 
     17 C17        19.9472  -24.5619  -43.1214 C.3       10 UNK        -0.0983 
     18 CA         19.5813  -25.3622  -41.8403 C.3       3 UNK         0.0876 
     19 N          18.1586  -25.6966  -41.8115 N.am      3 UNK        -0.4424 
     20 C          17.4697  -26.1812  -40.7706 C.2       2 UNK         0.4918 
     21 O          17.9273  -26.2844  -39.6321 O.2       2 UNK        -0.4875 
     22 CA         16.0155  -26.6114  -41.0458 C.3       2 UNK         0.0481 
     23 CB         15.0317  -25.5717  -40.4858 C.3       2 UNK        -0.1831 
     24 N          15.7624  -26.7812  -42.4789 N.am      2 UNK        -0.4498 
     25 C          16.0154  -27.8871  -43.1908 C.2       1 UNK         0.5027 
     26 O          16.3235  -28.9640  -42.6784 O.2       1 UNK        -0.4969 
     27 C          20.4664  -26.6159  -41.6828 C.2       3 UNK         0.5005 
     28 O          20.0632  -27.7101  -42.0787 O.2       3 UNK        -0.5279 
     29 N          21.6662  -26.4139  -41.1275 N.am      4 UNK        -0.4463 
     30 CA         22.7283  -27.4152  -41.0344 C.3       4 UNK         0.0283 
     31 CB         23.4370  -27.2524  -39.6783 C.3       4 UNK        -0.1875 
     32 C          23.7229  -27.2302  -42.1923 C.2       4 UNK         0.4949 
     33 O          23.7065  -26.1954  -42.8647 O.2       4 UNK        -0.5039 
     34 N          24.5919  -28.2244  -42.3840 N.am      5 UNK        -0.4663 
     35 CA         25.6739  -28.2178  -43.3661 C.3       5 UNK         0.0242 
     36 CB         25.1839  -28.8521  -44.6859 C.3       5 UNK        -0.1982 
     37 C          26.8902  -28.9060  -42.7301 C.2       5 UNK         0.5017 
     38 O          27.3400  -28.4653  -41.6709 O.2       5 UNK        -0.5012 
     39 N          27.3861  -29.9855  -43.3521 N.am      6 UNK        -0.4439 
     40 CA         28.4318  -30.8619  -42.8065 C.3       6 UNK         0.0297 
     41 CB         28.9674  -31.7653  -43.9294 C.3       6 UNK        -0.2006 
     42 C          27.9504  -31.7132  -41.6126 C.2       6 UNK         0.4892 
     43 O          28.7798  -32.2254  -40.8599 O.2       6 UNK        -0.5089 
     44 N          26.6281  -31.8382  -41.4644 N.am      7 UNK        -0.4243 
     45 CA         25.9232  -32.4407  -40.3405 C.3       7 UNK         0.0196 
     46 CB         25.3875  -33.8187  -40.7709 C.3       7 UNK        -0.2007 
     47 C          24.7818  -31.4957  -39.9348 C.2       7 UNK         0.5020 
     48 O          24.5653  -30.4716  -40.5887 O.2       7 UNK        -0.5147 
     49 N          24.0528  -31.8638  -38.8737 N.am      8 UNK        -0.4734 
     50 CA         22.8853  -31.1258  -38.3730 C.3       8 UNK         0.0238 
     51 CB         22.5205  -31.6510  -36.9745 C.3       8 UNK        -0.1912 
     52 C          21.6584  -31.1780  -39.3058 C.2       8 UNK         0.5038 
     53 O          20.7756  -30.3315  -39.1700 O.2       8 UNK        -0.5046 
     54 N          21.6266  -32.1636  -40.2152 N.am      9 UNK        -0.4200 
     55 CA         20.6084  -32.3679  -41.2634 C.3       9 UNK         0.0839 
     56 C          19.2028  -32.7948  -40.7414 C.2       9 UNK         0.5513 
     57 N          19.0564  -33.1998  -39.4853 N.am      9 UNK        -0.7519 
     58 O          18.2340  -32.8037  -41.4963 O.2       9 UNK        -0.4960 
     59 C59        20.5366  -31.1908  -42.2796 C.3       10 UNK        -0.0876 
     60 S60        22.1575  -30.8168  -43.0345 S.3       10 UNK        -0.2414 
     61 C61        21.8104  -31.0017  -44.8112 C.3       10 UNK         0.0169 
     62 H62        12.5668  -25.9615  -46.0663 H         1 UNK         0.0903 
     63 H63        12.6375  -24.6547  -44.8816 H         1 UNK         0.0903 
     64 H64        13.3981  -24.4563  -46.4627 H         1 UNK         0.0903 
     65 H65        13.9801  -27.6144  -45.5613 H         1 UNK         0.3096 
     66 H66        16.7745  -27.1486  -45.0173 H         1 UNK         0.1121 
     67 H67        15.1665  -29.7338  -45.2950 H         1 UNK         0.0849 
     68 H68        16.8957  -29.6792  -45.0892 H         1 UNK         0.0849 
     69 H69        17.6456  -30.7906  -47.5426 H         1 UNK         0.0865 
     70 H70        18.0867  -29.5356  -48.6714 H         1 UNK         0.0865 
     71 H71        19.6012  -31.3157  -46.3545 H         1 UNK         0.1346 
     72 H72        21.9947  -28.2810  -44.5090 H         1 UNK         0.1412 
     73 H73        18.6631  -27.1768  -46.9715 H         1 UNK         0.1426 
     74 H74        20.8864  -25.6115  -46.3914 H         1 UNK         0.0716 
     75 H75        21.5430  -25.9918  -44.8202 H         1 UNK         0.0716 
     76 H76        19.5553  -23.5490  -43.0184 H         1 UNK         0.0695 
     77 H77        21.0271  -24.4351  -43.2189 H         1 UNK         0.0695 
     78 H78        19.7723  -24.7217  -40.9763 H         1 UNK         0.0983 
     79 H79        17.7059  -25.6750  -42.7128 H         1 UNK         0.3095 
     80 H80        15.8432  -27.5590  -40.5315 H         1 UNK         0.0454 
     81 H81        15.1594  -24.5973  -40.9592 H         1 UNK         0.0851 
     82 H82        15.1770  -25.4349  -39.4133 H         1 UNK         0.0851 
     83 H83        13.9980  -25.8841  -40.6341 H         1 UNK         0.0851 
     84 H84        15.5082  -25.9490  -43.0060 H         1 UNK         0.2976 
     85 H85        21.9392  -25.4693  -40.8960 H         1 UNK         0.3116 
     86 H86        22.3093  -28.4225  -41.0920 H         1 UNK         0.0646 
     87 H87        22.7412  -27.3939  -38.8512 H         1 UNK         0.0847 
     88 H88        23.8902  -26.2660  -39.5729 H         1 UNK         0.0847 
     89 H89        24.2327  -27.9882  -39.5573 H         1 UNK         0.0847 
     90 H90        24.5688  -29.0236  -41.7495 H         1 UNK         0.3040 
     91 H91        25.9807  -27.1894  -43.5698 H         1 UNK         0.1015 
     92 H92        24.8442  -29.8785  -44.5441 H         1 UNK         0.0786 
     93 H93        25.9681  -28.8535  -45.4441 H         1 UNK         0.0786 
     94 H94        24.3498  -28.2869  -45.1015 H         1 UNK         0.0786 
     95 H95        26.9653  -30.2692  -44.2256 H         1 UNK         0.3172 
     96 H96        29.2523  -30.2347  -42.4514 H         1 UNK         0.0595 
     97 H97        28.1902  -32.4169  -44.3307 H         1 UNK         0.0839 
     98 H98        29.7713  -32.4060  -43.5639 H         1 UNK         0.0839 
     99 H99        29.3743  -31.1782  -44.7530 H         1 UNK         0.0839 
    100 H100       26.0314  -31.3093  -42.0854 H         1 UNK         0.2998 
    101 H101       26.5943  -32.5511  -39.4860 H         1 UNK         0.0822 
    102 H102       26.1964  -34.4649  -41.1128 H         1 UNK         0.0787 
    103 H103       24.8963  -34.3332  -39.9445 H         1 UNK         0.0787 
    104 H104       24.6644  -33.7340  -41.5835 H         1 UNK         0.0787 
    105 H105       24.2988  -32.7119  -38.3825 H         1 UNK         0.3055 
    106 H106       23.1661  -30.0742  -38.2808 H         1 UNK         0.1106 
    107 H107       22.2474  -32.7066  -36.9963 H         1 UNK         0.0828 
    108 H108       21.6721  -31.1037  -36.5607 H         1 UNK         0.0828 
    109 H109       23.3495  -31.5316  -36.2766 H         1 UNK         0.0828 
    110 H110       22.3967  -32.8143  -40.2261 H         1 UNK         0.2931 
    111 H111       20.9584  -33.2379  -41.8201 H         1 UNK         0.0412 
    112 H112       18.1464  -33.4884  -39.1618 H         1 UNK         0.3472 
    113 H113       19.8432  -33.2075  -38.8567 H         1 UNK         0.3472 
    114 H114       20.1665  -30.2889  -41.7915 H         1 UNK         0.0970 
    115 H115       19.8200  -31.4111  -43.0725 H         1 UNK         0.0970 
    116 H116       21.3914  -31.9945  -44.9829 H         1 UNK         0.0612 
    117 H117       22.7550  -30.9695  -45.3546 H         1 UNK         0.0612 
@<TRIPOS>BOND
     1    1    2 1    
     2    1   62 1    
     3    1   63 1    
     4    1   64 1    
     5    2    3 2    
     6    2    4 am   BACKBONE|DICT|INTERRES
     7    4    5 1    
     8    4   65 1    
     9    5    6 1    
    10    5   25 1    
    11    5   66 1    
    12    6    7 1    
    13    6   67 1    
    14    6   68 1    
    15    7    8 1    
    16    8    9 1    
    17    8   69 1    
    18    8   70 1    
    19    9   10 ar   
    20    9   14 ar   
    21   10   11 ar   
    22   10   71 1    
    23   11   12 ar   
    24   11   61 1    
    25   12   13 ar   
    26   12   72 1    
    27   13   14 ar   
    28   13   15 1    
    29   14   73 1    
    30   15   16 1    
    31   15   74 1    
    32   15   75 1    
    33   16   17 1    
    34   17   18 1    
    35   17   76 1    
    36   17   77 1    
    37   18   19 1    
    38   18   27 1    
    39   18   78 1    
    40   19   20 am   BACKBONE|DICT|INTERRES
    41   19   79 1    
    42   20   21 2    
    43   20   22 1    
    44   22   23 1    
    45   22   24 1    
    46   22   80 1    
    47   23   81 1    
    48   23   82 1    
    49   23   83 1    
    50   24   25 am   BACKBONE|DICT|INTERRES
    51   24   84 1    
    52   25   26 2    
    53   27   28 2    
    54   27   29 am   BACKBONE|DICT|INTERRES
    55   29   30 1    
    56   29   85 1    
    57   30   31 1    
    58   30   32 1    
    59   30   86 1    
    60   31   87 1    
    61   31   88 1    
    62   31   89 1    
    63   32   33 2    
    64   32   34 am   BACKBONE|DICT|INTERRES
    65   34   35 1    
    66   34   90 1    
    67   35   36 1    
    68   35   37 1    
    69   35   91 1    
    70   36   92 1    
    71   36   93 1    
    72   36   94 1    
    73   37   38 2    
    74   37   39 am   BACKBONE|DICT|INTERRES
    75   39   40 1    
    76   39   95 1    
    77   40   41 1    
    78   40   42 1    
    79   40   96 1    
    80   41   97 1    
    81   41   98 1    
    82   41   99 1    
    83   42   43 2    
    84   42   44 am   BACKBONE|DICT|INTERRES
    85   44   45 1    
    86   44  100 1    
    87   45   46 1    
    88   45   47 1    
    89   45  101 1    
    90   46  102 1    
    91   46  103 1    
    92   46  104 1    
    93   47   48 2    
    94   47   49 am   BACKBONE|DICT|INTERRES
    95   49   50 1    
    96   49  105 1    
    97   50   51 1    
    98   50   52 1    
    99   50  106 1    
   100   51  107 1    
   101   51  108 1    
   102   51  109 1    
   103   52   53 2    
   104   52   54 am   BACKBONE|DICT|INTERRES
   105   54   55 1    
   106   54  110 1    
   107   55   56 1    
   108   55   59 1    
   109   55  111 1    
   110   56   57 am   BACKBONE|DICT|INTERRES
   111   56   58 2    
   112   57  112 1    
   113   57  113 1    
   114   59   60 1    
   115   59  114 1    
   116   59  115 1    
   117   60   61 1    
   118   61  116 1    
   119   61  117 1    
@<TRIPOS>SUBSTRUCTURE
     1 UNK         1 GROUP             0       ****    0 ROOT    
