@<TRIPOS>MOLECULE
3R8
117   119    1
SMALL
USER_CHARGES


@<TRIPOS>ATOM
      1 CA         19.4182  -28.2577  -41.7019 C.3       0 UNK        -0.2013 
      2 C          18.4367  -27.1002  -41.7960 C.2       0 UNK         0.4866 
      3 O          17.6399  -26.8984  -40.8786 O.2       0 UNK        -0.5176 
      4 N          18.4890  -26.3380  -42.8915 N.am      1 UNK        -0.4884 
      5 CA         17.6459  -25.1728  -43.1461 C.3       1 UNK         0.0853 
      6 C6         16.1671  -25.5190  -43.4942 C.3       10 UNK        -0.0849 
      7 S7         15.8848  -26.5744  -44.9636 S.3       10 UNK        -0.2776 
      8 C8         15.7068  -28.2514  -44.2488 C.3       10 UNK         0.0316 
      9 C9         16.9362  -29.1573  -44.3683 C.ar      10 UNK        -0.0863 
     10 C10        16.9985  -30.3101  -43.5775 C.ar      10 UNK        -0.1009 
     11 C11        18.0800  -31.1889  -43.6815 C.ar      10 UNK        -0.0712 
     12 C12        19.1028  -30.9165  -44.5910 C.ar      10 UNK        -0.0894 
     13 C13        19.0696  -29.7704  -45.3876 C.ar      10 UNK        -0.0745 
     14 C14        17.9814  -28.8960  -45.2657 C.ar      10 UNK        -0.0972 
     15 C15        20.2461  -29.5045  -46.3289 C.3       10 UNK         0.0209 
     16 S16        19.9099  -28.3200  -47.6772 S.3       10 UNK        -0.2568 
     17 C17        21.4412  -27.3192  -47.6853 C.3       10 UNK        -0.0983 
     18 CA         21.4140  -26.0488  -46.7897 C.3       3 UNK         0.0876 
     19 N          20.1464  -25.3249  -46.8733 N.am      3 UNK        -0.4424 
     20 C          20.0105  -23.9964  -46.8083 C.2       2 UNK         0.4918 
     21 O          20.9396  -23.1975  -46.9307 O.2       2 UNK        -0.4875 
     22 CA         18.5945  -23.4798  -46.4966 C.3       2 UNK         0.0481 
     23 CB         17.7030  -23.5315  -47.7475 C.3       2 UNK        -0.1831 
     24 N          17.9586  -24.2262  -45.4042 N.am      2 UNK        -0.4498 
     25 C          18.3847  -24.2501  -44.1326 C.2       1 UNK         0.5027 
     26 O          19.3347  -23.5812  -43.7211 O.2       1 UNK        -0.4969 
     27 C          21.6627  -26.3670  -45.3023 C.2       3 UNK         0.5005 
     28 O          20.7076  -26.6685  -44.5823 O.2       3 UNK        -0.5279 
     29 N          22.9224  -26.2721  -44.8567 N.am      4 UNK        -0.4463 
     30 CA         23.2877  -26.3870  -43.4417 C.3       4 UNK         0.0283 
     31 CB         24.6897  -25.7974  -43.2160 C.3       4 UNK        -0.1875 
     32 C          23.2159  -27.8196  -42.8927 C.2       4 UNK         0.4949 
     33 O          22.7455  -28.0033  -41.7712 O.2       4 UNK        -0.5039 
     34 N          23.7327  -28.7941  -43.6608 N.am      5 UNK        -0.4663 
     35 CA         23.8540  -30.2246  -43.3159 C.3       5 UNK         0.0242 
     36 CB         22.4888  -30.9221  -43.4514 C.3       5 UNK        -0.1982 
     37 C          24.5144  -30.4830  -41.9436 C.2       5 UNK         0.5017 
     38 O          24.0585  -31.3418  -41.1811 O.2       5 UNK        -0.5012 
     39 N          25.5333  -29.6644  -41.6319 N.am      6 UNK        -0.4439 
     40 CA         26.2688  -29.5720  -40.3616 C.3       6 UNK         0.0297 
     41 CB         27.1143  -30.8448  -40.1441 C.3       6 UNK        -0.2006 
     42 C          25.3901  -29.2504  -39.1306 C.2       6 UNK         0.4892 
     43 O          25.8444  -29.4544  -38.0040 O.2       6 UNK        -0.5089 
     44 N          24.1458  -28.7952  -39.3607 N.am      7 UNK        -0.4243 
     45 CA         23.0433  -28.6725  -38.3987 C.3       7 UNK         0.0196 
     46 CB         23.3336  -27.5637  -37.3652 C.3       7 UNK        -0.2007 
     47 C          22.6566  -30.0177  -37.7437 C.2       7 UNK         0.5020 
     48 O          22.0930  -30.0174  -36.6479 O.2       7 UNK        -0.5147 
     49 N          22.9783  -31.1361  -38.4097 N.am      8 UNK        -0.4734 
     50 CA         22.8505  -32.4928  -37.8781 C.3       8 UNK         0.0238 
     51 CB         24.2519  -33.1181  -37.7739 C.3       8 UNK        -0.1912 
     52 C          21.9392  -33.3777  -38.7360 C.2       8 UNK         0.5038 
     53 O          21.2545  -34.2312  -38.1703 O.2       8 UNK        -0.5046 
     54 N          21.9500  -33.1834  -40.0647 N.am      9 UNK        -0.4200 
     55 CA         21.1991  -33.9928  -41.0467 C.3       9 UNK         0.0839 
     56 C          21.6655  -35.4794  -41.1451 C.2       9 UNK         0.5513 
     57 N          22.8782  -35.8176  -40.7226 N.am      9 UNK        -0.7519 
     58 O          20.9381  -36.3362  -41.6413 O.2       9 UNK        -0.4960 
     59 C59        19.6538  -33.8423  -40.9057 C.3       10 UNK        -0.0876 
     60 S60        19.1031  -32.1486  -41.3019 S.3       10 UNK        -0.2414 
     61 C61        18.1537  -32.4429  -42.8270 C.3       10 UNK         0.0169 
     62 H62        20.1489  -28.0723  -40.9156 H         1 UNK         0.0903 
     63 H63        18.8864  -29.1774  -41.4646 H         1 UNK         0.0903 
     64 H64        19.9545  -28.4145  -42.6380 H         1 UNK         0.0903 
     65 H65        19.2207  -26.5094  -43.5846 H         1 UNK         0.3096 
     66 H66        17.6133  -24.6000  -42.2162 H         1 UNK         0.1121 
     67 H67        15.6948  -25.9861  -42.6294 H         1 UNK         0.0849 
     68 H68        15.6067  -24.5943  -43.6435 H         1 UNK         0.0849 
     69 H69        15.4078  -28.1757  -43.2026 H         1 UNK         0.0865 
     70 H70        14.8808  -28.7451  -44.7620 H         1 UNK         0.0865 
     71 H71        16.2013  -30.5277  -42.8797 H         1 UNK         0.1346 
     72 H72        19.9334  -31.6032  -44.6707 H         1 UNK         0.1412 
     73 H73        17.9494  -28.0064  -45.8737 H         1 UNK         0.1426 
     74 H74        20.5771  -30.4412  -46.7799 H         1 UNK         0.0716 
     75 H75        21.0773  -29.1455  -45.7238 H         1 UNK         0.0716 
     76 H76        21.5958  -27.0060  -48.7188 H         1 UNK         0.0695 
     77 H77        22.2989  -27.9524  -47.4501 H         1 UNK         0.0695 
     78 H78        22.2202  -25.3932  -47.1266 H         1 UNK         0.0983 
     79 H79        19.3296  -25.8971  -46.7187 H         1 UNK         0.3095 
     80 H80        18.6796  -22.4372  -46.1835 H         1 UNK         0.0454 
     81 H81        18.1530  -22.9731  -48.5696 H         1 UNK         0.0851 
     82 H82        16.7251  -23.0898  -47.5555 H         1 UNK         0.0851 
     83 H83        17.5465  -24.5535  -48.0949 H         1 UNK         0.0851 
     84 H84        17.1739  -24.8210  -45.6423 H         1 UNK         0.2976 
     85 H85        23.6595  -26.0250  -45.5021 H         1 UNK         0.3116 
     86 H86        22.5813  -25.7856  -42.8642 H         1 UNK         0.0646 
     87 H87        25.4522  -26.3208  -43.7939 H         1 UNK         0.0847 
     88 H88        24.7249  -24.7433  -43.4920 H         1 UNK         0.0847 
     89 H89        24.9755  -25.8621  -42.1649 H         1 UNK         0.0847 
     90 H90        24.1069  -28.5278  -44.5610 H         1 UNK         0.3040 
     91 H91        24.5237  -30.6700  -44.0535 H         1 UNK         0.1015 
     92 H92        22.5763  -31.9926  -43.2688 H         1 UNK         0.0786 
     93 H93        22.1000  -30.8075  -44.4603 H         1 UNK         0.0786 
     94 H94        21.7529  -30.5230  -42.7517 H         1 UNK         0.0786 
     95 H95        25.7978  -28.9841  -42.3310 H         1 UNK         0.3172 
     96 H96        26.9550  -28.7307  -40.4682 H         1 UNK         0.0595 
     97 H97        26.4886  -31.7203  -39.9681 H         1 UNK         0.0839 
     98 H98        27.7727  -30.7387  -39.2810 H         1 UNK         0.0839 
     99 H99        27.7477  -31.0535  -41.0061 H         1 UNK         0.0839 
    100 H100       23.8658  -28.6379  -40.3256 H         1 UNK         0.2998 
    101 H101       22.1732  -28.3629  -38.9798 H         1 UNK         0.0822 
    102 H102       22.4571  -27.3656  -36.7471 H         1 UNK         0.0787 
    103 H103       23.6013  -26.6270  -37.8541 H         1 UNK         0.0787 
    104 H104       24.1480  -27.8380  -36.6943 H         1 UNK         0.0787 
    105 H105       23.4193  -31.0456  -39.3200 H         1 UNK         0.3055 
    106 H106       22.4165  -32.4700  -36.8759 H         1 UNK         0.1106 
    107 H107       24.8942  -32.5369  -37.1117 H         1 UNK         0.0828 
    108 H108       24.2010  -34.1304  -37.3703 H         1 UNK         0.0828 
    109 H109       24.7428  -33.1759  -38.7461 H         1 UNK         0.0828 
    110 H110       22.5743  -32.4868  -40.4565 H         1 UNK         0.2931 
    111 H111       21.4659  -33.5816  -42.0195 H         1 UNK         0.0412 
    112 H112       23.4965  -35.1243  -40.3337 H         1 UNK         0.3472 
    113 H113       23.1778  -36.7771  -40.7992 H         1 UNK         0.3472 
    114 H114       19.1299  -34.5408  -41.5596 H         1 UNK         0.0970 
    115 H115       19.3232  -34.0932  -39.8976 H         1 UNK         0.0970 
    116 H116       18.6198  -33.2412  -43.4069 H         1 UNK         0.0612 
    117 H117       17.1531  -32.7920  -42.5678 H         1 UNK         0.0612 
@<TRIPOS>BOND
     1    1    2 1    
     2    1   62 1    
     3    1   63 1    
     4    1   64 1    
     5    2    3 2    
     6    2    4 am   BACKBONE|DICT|INTERRES
     7    4    5 1    
     8    4   65 1    
     9    5    6 1    
    10    5   25 1    
    11    5   66 1    
    12    6    7 1    
    13    6   67 1    
    14    6   68 1    
    15    7    8 1    
    16    8    9 1    
    17    8   69 1    
    18    8   70 1    
    19    9   10 ar   
    20    9   14 ar   
    21   10   11 ar   
    22   10   71 1    
    23   11   12 ar   
    24   11   61 1    
    25   12   13 ar   
    26   12   72 1    
    27   13   14 ar   
    28   13   15 1    
    29   14   73 1    
    30   15   16 1    
    31   15   74 1    
    32   15   75 1    
    33   16   17 1    
    34   17   18 1    
    35   17   76 1    
    36   17   77 1    
    37   18   19 1    
    38   18   27 1    
    39   18   78 1    
    40   19   20 am   BACKBONE|DICT|INTERRES
    41   19   79 1    
    42   20   21 2    
    43   20   22 1    
    44   22   23 1    
    45   22   24 1    
    46   22   80 1    
    47   23   81 1    
    48   23   82 1    
    49   23   83 1    
    50   24   25 am   BACKBONE|DICT|INTERRES
    51   24   84 1    
    52   25   26 2    
    53   27   28 2    
    54   27   29 am   BACKBONE|DICT|INTERRES
    55   29   30 1    
    56   29   85 1    
    57   30   31 1    
    58   30   32 1    
    59   30   86 1    
    60   31   87 1    
    61   31   88 1    
    62   31   89 1    
    63   32   33 2    
    64   32   34 am   BACKBONE|DICT|INTERRES
    65   34   35 1    
    66   34   90 1    
    67   35   36 1    
    68   35   37 1    
    69   35   91 1    
    70   36   92 1    
    71   36   93 1    
    72   36   94 1    
    73   37   38 2    
    74   37   39 am   BACKBONE|DICT|INTERRES
    75   39   40 1    
    76   39   95 1    
    77   40   41 1    
    78   40   42 1    
    79   40   96 1    
    80   41   97 1    
    81   41   98 1    
    82   41   99 1    
    83   42   43 2    
    84   42   44 am   BACKBONE|DICT|INTERRES
    85   44   45 1    
    86   44  100 1    
    87   45   46 1    
    88   45   47 1    
    89   45  101 1    
    90   46  102 1    
    91   46  103 1    
    92   46  104 1    
    93   47   48 2    
    94   47   49 am   BACKBONE|DICT|INTERRES
    95   49   50 1    
    96   49  105 1    
    97   50   51 1    
    98   50   52 1    
    99   50  106 1    
   100   51  107 1    
   101   51  108 1    
   102   51  109 1    
   103   52   53 2    
   104   52   54 am   BACKBONE|DICT|INTERRES
   105   54   55 1    
   106   54  110 1    
   107   55   56 1    
   108   55   59 1    
   109   55  111 1    
   110   56   57 am   BACKBONE|DICT|INTERRES
   111   56   58 2    
   112   57  112 1    
   113   57  113 1    
   114   59   60 1    
   115   59  114 1    
   116   59  115 1    
   117   60   61 1    
   118   61  116 1    
   119   61  117 1    
@<TRIPOS>SUBSTRUCTURE
     1 UNK         1 GROUP             0       ****    0 ROOT    
