@<TRIPOS>MOLECULE
3R8
117   119    1
SMALL
USER_CHARGES


@<TRIPOS>ATOM
      1 CA         15.3672  -22.5279  -41.4525 C.3       0 UNK        -0.2013 
      2 C          15.6405  -22.8997  -42.9020 C.2       0 UNK         0.4866 
      3 O          15.4937  -22.0587  -43.7889 O.2       0 UNK        -0.5176 
      4 N          16.0391  -24.1541  -43.1507 N.am      1 UNK        -0.4884 
      5 CA         16.3573  -24.6877  -44.4825 C.3       1 UNK         0.0853 
      6 C6         16.2487  -26.2334  -44.5241 C.3       10 UNK        -0.0849 
      7 S7         17.2322  -27.0963  -43.2452 S.3       10 UNK        -0.2776 
      8 C8         16.5813  -28.7966  -43.4090 C.3       10 UNK         0.0316 
      9 C9         17.5646  -29.7480  -44.0832 C.ar      10 UNK        -0.0863 
     10 C10        17.8005  -31.0101  -43.5289 C.ar      10 UNK        -0.1009 
     11 C11        18.7106  -31.8911  -44.1212 C.ar      10 UNK        -0.0712 
     12 C12        19.4063  -31.4921  -45.2678 C.ar      10 UNK        -0.0894 
     13 C13        19.1783  -30.2343  -45.8358 C.ar      10 UNK        -0.0745 
     14 C14        18.2311  -29.3843  -45.2577 C.ar      10 UNK        -0.0972 
     15 C15        19.9430  -29.8020  -47.0806 C.3       10 UNK         0.0209 
     16 S16        21.4960  -28.9320  -46.6743 S.3       10 UNK        -0.2568 
     17 C17        20.9019  -27.2488  -46.2606 C.3       10 UNK        -0.0983 
     18 CA         21.5734  -26.5533  -45.0392 C.3       3 UNK         0.0876 
     19 N          20.8006  -25.4084  -44.5750 N.am      3 UNK        -0.4424 
     20 C          20.8657  -24.1763  -45.0875 C.2       2 UNK         0.4918 
     21 O          21.6141  -23.8578  -46.0134 O.2       2 UNK        -0.4875 
     22 CA         19.9226  -23.1338  -44.4517 C.3       2 UNK         0.0481 
     23 CB         19.8214  -21.8332  -45.2766 C.3       2 UNK        -0.1831 
     24 N          18.5851  -23.6713  -44.1625 N.am      2 UNK        -0.4498 
     25 C          17.7106  -24.1937  -45.0400 C.2       1 UNK         0.5027 
     26 O          17.9282  -24.2979  -46.2480 O.2       1 UNK        -0.4969 
     27 C          21.8285  -27.4275  -43.8043 C.2       3 UNK         0.5005 
     28 O          22.8870  -27.2990  -43.1840 O.2       3 UNK        -0.5279 
     29 N          20.8677  -28.3045  -43.4704 N.am      4 UNK        -0.4463 
     30 CA         20.8975  -29.2661  -42.3577 C.3       4 UNK         0.0283 
     31 CB         20.7861  -28.5178  -41.0132 C.3       4 UNK        -0.1875 
     32 C          22.0973  -30.2366  -42.3937 C.2       4 UNK         0.4949 
     33 O          22.4596  -30.7854  -41.3519 O.2       4 UNK        -0.5039 
     34 N          22.7246  -30.3850  -43.5726 N.am      5 UNK        -0.4663 
     35 CA         24.0161  -31.0375  -43.8256 C.3       5 UNK         0.0242 
     36 CB         23.8701  -32.5702  -43.7707 C.3       5 UNK        -0.1982 
     37 C          25.1513  -30.4986  -42.9274 C.2       5 UNK         0.5017 
     38 O          25.9825  -31.2771  -42.4595 O.2       5 UNK        -0.5012 
     39 N          25.1429  -29.1757  -42.6888 N.am      6 UNK        -0.4439 
     40 CA         26.0057  -28.4385  -41.7570 C.3       6 UNK         0.0297 
     41 CB         27.4916  -28.5170  -42.1703 C.3       6 UNK        -0.2006 
     42 C          25.7509  -28.8478  -40.2923 C.2       6 UNK         0.4892 
     43 O          26.6966  -29.1013  -39.5440 O.2       6 UNK        -0.5089 
     44 N          24.4605  -28.8931  -39.9273 N.am      7 UNK        -0.4243 
     45 CA         23.9057  -29.2629  -38.6189 C.3       7 UNK         0.0196 
     46 CB         24.3274  -28.2518  -37.5310 C.3       7 UNK        -0.2007 
     47 C          24.1871  -30.7287  -38.2314 C.2       7 UNK         0.5020 
     48 O          24.4835  -31.0128  -37.0695 O.2       7 UNK        -0.5147 
     49 N          24.0677  -31.6343  -39.2096 N.am      8 UNK        -0.4734 
     50 CA         24.2070  -33.0829  -39.0372 C.3       8 UNK         0.0238 
     51 CB         25.2345  -33.6190  -40.0462 C.3       8 UNK        -0.1912 
     52 C          22.8651  -33.8222  -39.1820 C.2       8 UNK         0.5038 
     53 O          22.7515  -34.9342  -38.6642 O.2       8 UNK        -0.5046 
     54 N          21.8774  -33.2125  -39.8520 N.am      9 UNK        -0.4200 
     55 CA         20.5160  -33.7493  -40.0300 C.3       9 UNK         0.0839 
     56 C          19.3952  -32.7092  -39.7446 C.2       9 UNK         0.5513 
     57 N          19.6988  -31.5551  -39.1632 N.am      9 UNK        -0.7519 
     58 O          18.2254  -32.9636  -40.0193 O.2       9 UNK        -0.4960 
     59 C59        20.3476  -34.5027  -41.3792 C.3       10 UNK        -0.0876 
     60 S60        20.6085  -33.4473  -42.8452 S.3       10 UNK        -0.2414 
     61 C61        18.9305  -33.2737  -43.5225 C.3       10 UNK         0.0169 
     62 H62        16.0168  -21.7083  -41.1463 H         1 UNK         0.0903 
     63 H63        14.3330  -22.2043  -41.3373 H         1 UNK         0.0903 
     64 H64        15.5370  -23.3661  -40.7770 H         1 UNK         0.0903 
     65 H65        16.1419  -24.8123  -42.3897 H         1 UNK         0.3096 
     66 H66        15.6049  -24.3002  -45.1739 H         1 UNK         0.1121 
     67 H67        15.2018  -26.5081  -44.3853 H         1 UNK         0.0849 
     68 H68        16.5203  -26.6155  -45.5099 H         1 UNK         0.0849 
     69 H69        16.3383  -29.1548  -42.4073 H         1 UNK         0.0865 
     70 H70        15.6439  -28.8016  -43.9663 H         1 UNK         0.0865 
     71 H71        17.2775  -31.3093  -42.6303 H         1 UNK         0.1346 
     72 H72        20.1263  -32.1637  -45.7155 H         1 UNK         0.1412 
     73 H73        18.0199  -28.4281  -45.7122 H         1 UNK         0.1426 
     74 H74        19.3195  -29.1670  -47.7120 H         1 UNK         0.0716 
     75 H75        20.1848  -30.6786  -47.6834 H         1 UNK         0.0716 
     76 H76        19.8240  -27.2735  -46.1165 H         1 UNK         0.0695 
     77 H77        21.0474  -26.6263  -47.1447 H         1 UNK         0.0695 
     78 H78        22.5581  -26.2065  -45.3619 H         1 UNK         0.0983 
     79 H79        20.1835  -25.5779  -43.7928 H         1 UNK         0.3095 
     80 H80        20.3623  -22.8759  -43.4873 H         1 UNK         0.0454 
     81 H81        20.7986  -21.3609  -45.3837 H         1 UNK         0.0851 
     82 H82        19.1639  -21.1088  -44.7963 H         1 UNK         0.0851 
     83 H83        19.4393  -22.0184  -46.2810 H         1 UNK         0.0851 
     84 H84        18.2964  -23.6416  -43.1945 H         1 UNK         0.2976 
     85 H85        20.0513  -28.3690  -44.0649 H         1 UNK         0.3116 
     86 H86        20.0126  -29.8912  -42.4554 H         1 UNK         0.0646 
     87 H87        21.6467  -27.8748  -40.8298 H         1 UNK         0.0847 
     88 H88        19.8922  -27.8947  -40.9856 H         1 UNK         0.0847 
     89 H89        20.7147  -29.2119  -40.1772 H         1 UNK         0.0847 
     90 H90        22.3191  -29.9064  -44.3660 H         1 UNK         0.3040 
     91 H91        24.3002  -30.7745  -44.8458 H         1 UNK         0.1015 
     92 H92        24.8145  -33.0701  -43.9888 H         1 UNK         0.0786 
     93 H93        23.1450  -32.9203  -44.5050 H         1 UNK         0.0786 
     94 H94        23.5371  -32.9060  -42.7898 H         1 UNK         0.0786 
     95 H95        24.3845  -28.6277  -43.0875 H         1 UNK         0.3172 
     96 H96        25.7039  -27.3928  -41.8349 H         1 UNK         0.0595 
     97 H97        27.8964  -29.5228  -42.0553 H         1 UNK         0.0839 
     98 H98        28.1001  -27.8540  -41.5543 H         1 UNK         0.0839 
     99 H99        27.6321  -28.2144  -43.2078 H         1 UNK         0.0839 
    100 H100       23.7760  -28.7100  -40.6474 H         1 UNK         0.2998 
    101 H101       22.8224  -29.1905  -38.7222 H         1 UNK         0.0822 
    102 H102       23.8043  -28.4457  -36.5938 H         1 UNK         0.0787 
    103 H103       24.0914  -27.2295  -37.8263 H         1 UNK         0.0787 
    104 H104       25.3963  -28.3029  -37.3214 H         1 UNK         0.0787 
    105 H105       23.7683  -31.3083  -40.1260 H         1 UNK         0.3055 
    106 H106       24.5800  -33.3073  -38.0354 H         1 UNK         0.1106 
    107 H107       26.2024  -33.1337  -39.9193 H         1 UNK         0.0828 
    108 H108       25.3882  -34.6911  -39.9168 H         1 UNK         0.0828 
    109 H109       24.9167  -33.4571  -41.0745 H         1 UNK         0.0828 
    110 H110       22.0520  -32.3185  -40.3023 H         1 UNK         0.2931 
    111 H111       20.3501  -34.4933  -39.2491 H         1 UNK         0.0412 
    112 H112       18.9607  -30.8985  -38.9654 H         1 UNK         0.3472 
    113 H113       20.6444  -31.3541  -38.8848 H         1 UNK         0.3472 
    114 H114       21.0717  -35.3171  -41.4270 H         1 UNK         0.0970 
    115 H115       19.3710  -34.9864  -41.4318 H         1 UNK         0.0970 
    116 H116       18.7746  -34.0342  -44.2886 H         1 UNK         0.0612 
    117 H117       18.1923  -33.4659  -42.7431 H         1 UNK         0.0612 
@<TRIPOS>BOND
     1    1    2 1    
     2    1   62 1    
     3    1   63 1    
     4    1   64 1    
     5    2    3 2    
     6    2    4 am   BACKBONE|DICT|INTERRES
     7    4    5 1    
     8    4   65 1    
     9    5    6 1    
    10    5   25 1    
    11    5   66 1    
    12    6    7 1    
    13    6   67 1    
    14    6   68 1    
    15    7    8 1    
    16    8    9 1    
    17    8   69 1    
    18    8   70 1    
    19    9   10 ar   
    20    9   14 ar   
    21   10   11 ar   
    22   10   71 1    
    23   11   12 ar   
    24   11   61 1    
    25   12   13 ar   
    26   12   72 1    
    27   13   14 ar   
    28   13   15 1    
    29   14   73 1    
    30   15   16 1    
    31   15   74 1    
    32   15   75 1    
    33   16   17 1    
    34   17   18 1    
    35   17   76 1    
    36   17   77 1    
    37   18   19 1    
    38   18   27 1    
    39   18   78 1    
    40   19   20 am   BACKBONE|DICT|INTERRES
    41   19   79 1    
    42   20   21 2    
    43   20   22 1    
    44   22   23 1    
    45   22   24 1    
    46   22   80 1    
    47   23   81 1    
    48   23   82 1    
    49   23   83 1    
    50   24   25 am   BACKBONE|DICT|INTERRES
    51   24   84 1    
    52   25   26 2    
    53   27   28 2    
    54   27   29 am   BACKBONE|DICT|INTERRES
    55   29   30 1    
    56   29   85 1    
    57   30   31 1    
    58   30   32 1    
    59   30   86 1    
    60   31   87 1    
    61   31   88 1    
    62   31   89 1    
    63   32   33 2    
    64   32   34 am   BACKBONE|DICT|INTERRES
    65   34   35 1    
    66   34   90 1    
    67   35   36 1    
    68   35   37 1    
    69   35   91 1    
    70   36   92 1    
    71   36   93 1    
    72   36   94 1    
    73   37   38 2    
    74   37   39 am   BACKBONE|DICT|INTERRES
    75   39   40 1    
    76   39   95 1    
    77   40   41 1    
    78   40   42 1    
    79   40   96 1    
    80   41   97 1    
    81   41   98 1    
    82   41   99 1    
    83   42   43 2    
    84   42   44 am   BACKBONE|DICT|INTERRES
    85   44   45 1    
    86   44  100 1    
    87   45   46 1    
    88   45   47 1    
    89   45  101 1    
    90   46  102 1    
    91   46  103 1    
    92   46  104 1    
    93   47   48 2    
    94   47   49 am   BACKBONE|DICT|INTERRES
    95   49   50 1    
    96   49  105 1    
    97   50   51 1    
    98   50   52 1    
    99   50  106 1    
   100   51  107 1    
   101   51  108 1    
   102   51  109 1    
   103   52   53 2    
   104   52   54 am   BACKBONE|DICT|INTERRES
   105   54   55 1    
   106   54  110 1    
   107   55   56 1    
   108   55   59 1    
   109   55  111 1    
   110   56   57 am   BACKBONE|DICT|INTERRES
   111   56   58 2    
   112   57  112 1    
   113   57  113 1    
   114   59   60 1    
   115   59  114 1    
   116   59  115 1    
   117   60   61 1    
   118   61  116 1    
   119   61  117 1    
@<TRIPOS>SUBSTRUCTURE
     1 UNK         1 GROUP             0       ****    0 ROOT    
