@<TRIPOS>MOLECULE
3R8
117   119    1
SMALL
USER_CHARGES


@<TRIPOS>ATOM
      1 CA         17.2488  -23.8680  -47.1363 C.3       0 UNK        -0.2013 
      2 C          17.4366  -25.1505  -46.3401 C.2       0 UNK         0.4866 
      3 O          18.5315  -25.4007  -45.8347 O.2       0 UNK        -0.5176 
      4 N          16.3786  -25.9650  -46.2285 N.am      1 UNK        -0.4884 
      5 CA         16.3556  -27.2229  -45.4760 C.3       1 UNK         0.0853 
      6 C6         15.1587  -28.1211  -45.8869 C.3       10 UNK        -0.0849 
      7 S7         15.5750  -29.1066  -47.3648 S.3       10 UNK        -0.2776 
      8 C8         16.0113  -30.7203  -46.6259 C.3       10 UNK         0.0316 
      9 C9         17.0800  -30.5993  -45.5447 C.ar      10 UNK        -0.0863 
     10 C10        16.7294  -30.7049  -44.1951 C.ar      10 UNK        -0.1009 
     11 C11        17.6947  -30.5612  -43.1951 C.ar      10 UNK        -0.0712 
     12 C12        19.0252  -30.3258  -43.5514 C.ar      10 UNK        -0.0894 
     13 C13        19.3908  -30.2252  -44.8969 C.ar      10 UNK        -0.0745 
     14 C14        18.4147  -30.3661  -45.8893 C.ar      10 UNK        -0.0972 
     15 C15        20.8386  -29.9673  -45.2843 C.3       10 UNK         0.0209 
     16 S16        21.2448  -28.1936  -45.2111 S.3       10 UNK        -0.2568 
     17 C17        22.0029  -28.0662  -43.5566 C.3       10 UNK        -0.0983 
     18 CA         21.7116  -26.7128  -42.8511 C.3       3 UNK         0.0876 
     19 N          20.2735  -26.4617  -42.6765 N.am      3 UNK        -0.4424 
     20 C          19.4362  -27.1064  -41.8460 C.2       2 UNK         0.4918 
     21 O          19.7775  -27.9591  -41.0274 O.2       2 UNK        -0.4875 
     22 CA         17.9511  -26.7714  -42.0065 C.3       2 UNK         0.0481 
     23 CB         17.6338  -25.3553  -41.4876 C.3       2 UNK        -0.1831 
     24 N          17.6111  -26.9225  -43.4167 N.am      2 UNK        -0.4498 
     25 C          16.3917  -26.9513  -43.9597 C.2       1 UNK         0.5027 
     26 O          15.3443  -26.7700  -43.3356 O.2       1 UNK        -0.4969 
     27 C          22.5118  -26.5653  -41.5360 C.2       3 UNK         0.5005 
     28 O          23.4415  -27.3360  -41.2991 O.2       3 UNK        -0.5279 
     29 N          22.1464  -25.5861  -40.6942 N.am      4 UNK        -0.4463 
     30 CA         22.6293  -25.4164  -39.3141 C.3       4 UNK         0.0283 
     31 CB         21.9721  -24.1691  -38.7013 C.3       4 UNK        -0.1875 
     32 C          24.1598  -25.3578  -39.1304 C.2       4 UNK         0.4949 
     33 O          24.6519  -25.7409  -38.0690 O.2       4 UNK        -0.5039 
     34 N          24.8820  -24.8959  -40.1586 N.am      5 UNK        -0.4663 
     35 CA         26.3447  -24.8281  -40.1815 C.3       5 UNK         0.0242 
     36 CB         26.7665  -23.7067  -41.1463 C.3       5 UNK        -0.1982 
     37 C          27.0296  -26.1532  -40.5738 C.2       5 UNK         0.5017 
     38 O          28.2401  -26.2633  -40.3727 O.2       5 UNK        -0.5012 
     39 N          26.2845  -27.1083  -41.1502 N.am      6 UNK        -0.4439 
     40 CA         26.8197  -28.3467  -41.7315 C.3       6 UNK         0.0297 
     41 CB         26.6226  -28.3026  -43.2564 C.3       6 UNK        -0.2006 
     42 C          26.1851  -29.6250  -41.1585 C.2       6 UNK         0.4892 
     43 O          26.8431  -30.6662  -41.1792 O.2       6 UNK        -0.5089 
     44 N          24.9365  -29.5374  -40.6777 N.am      7 UNK        -0.4243 
     45 CA         24.0675  -30.6377  -40.2508 C.3       7 UNK         0.0196 
     46 CB         24.6408  -31.3701  -39.0149 C.3       7 UNK        -0.2007 
     47 C          23.7098  -31.5496  -41.4420 C.2       7 UNK         0.5020 
     48 O          23.3561  -31.0313  -42.5015 O.2       7 UNK        -0.5147 
     49 N          23.7768  -32.8759  -41.2494 N.am      8 UNK        -0.4734 
     50 CA         23.4632  -33.9279  -42.2314 C.3       8 UNK         0.0238 
     51 CB         24.4603  -33.8957  -43.4107 C.3       8 UNK        -0.1912 
     52 C          21.9896  -33.9270  -42.6939 C.2       8 UNK         0.5038 
     53 O          21.7017  -34.2938  -43.8347 O.2       8 UNK        -0.5046 
     54 N          21.0863  -33.5246  -41.7906 N.am      9 UNK        -0.4200 
     55 CA         19.6294  -33.5508  -41.9683 C.3       9 UNK         0.0839 
     56 C          19.0884  -35.0045  -42.0693 C.2       9 UNK         0.5513 
     57 N          18.1850  -35.2731  -43.0017 N.am      9 UNK        -0.7519 
     58 O          19.4626  -35.8784  -41.2893 O.2       9 UNK        -0.4960 
     59 C59        18.9476  -32.7480  -40.8296 C.3       10 UNK        -0.0876 
     60 S60        17.1927  -32.3576  -41.1490 S.3       10 UNK        -0.2414 
     61 C61        17.2864  -30.6374  -41.7325 C.3       10 UNK         0.0169 
     62 H62        16.2383  -23.7778  -47.5342 H         1 UNK         0.0903 
     63 H63        17.4430  -23.0025  -46.5033 H         1 UNK         0.0903 
     64 H64        17.9464  -23.8415  -47.9730 H         1 UNK         0.0903 
     65 H65        15.5037  -25.6988  -46.6577 H         1 UNK         0.3096 
     66 H66        17.2763  -27.7606  -45.7139 H         1 UNK         0.1121 
     67 H67        14.2698  -27.5219  -46.0908 H         1 UNK         0.0849 
     68 H68        14.8659  -28.8045  -45.0880 H         1 UNK         0.0849 
     69 H69        15.1088  -31.1832  -46.2235 H         1 UNK         0.0865 
     70 H70        16.3661  -31.3868  -47.4135 H         1 UNK         0.0865 
     71 H71        15.6999  -30.8857  -43.9174 H         1 UNK         0.1346 
     72 H72        19.7748  -30.2166  -42.7800 H         1 UNK         0.1412 
     73 H73        18.6894  -30.2792  -46.9319 H         1 UNK         0.1426 
     74 H74        21.5109  -30.5412  -44.6439 H         1 UNK         0.0716 
     75 H75        21.0205  -30.3217  -46.3000 H         1 UNK         0.0716 
     76 H76        23.0759  -28.2113  -43.6930 H         1 UNK         0.0695 
     77 H77        21.6675  -28.8929  -42.9296 H         1 UNK         0.0695 
     78 H78        22.0820  -25.9200  -43.5029 H         1 UNK         0.0983 
     79 H79        19.8840  -25.7696  -43.3023 H         1 UNK         0.3095 
     80 H80        17.3734  -27.4984  -41.4323 H         1 UNK         0.0454 
     81 H81        16.5618  -25.1592  -41.4948 H         1 UNK         0.0851 
     82 H82        18.1158  -24.5828  -42.0874 H         1 UNK         0.0851 
     83 H83        17.9734  -25.2324  -40.4583 H         1 UNK         0.0851 
     84 H84        18.3992  -27.0767  -44.0342 H         1 UNK         0.2976 
     85 H85        21.3848  -24.9865  -40.9773 H         1 UNK         0.3116 
     86 H86        22.2821  -26.2877  -38.7549 H         1 UNK         0.0646 
     87 H87        20.8852  -24.2524  -38.6959 H         1 UNK         0.0847 
     88 H88        22.2872  -24.0292  -37.6661 H         1 UNK         0.0847 
     89 H89        22.2390  -23.2634  -39.2472 H         1 UNK         0.0847 
     90 H90        24.3942  -24.6019  -40.9924 H         1 UNK         0.3040 
     91 H91        26.7025  -24.5664  -39.1829 H         1 UNK         0.1015 
     92 H92        26.4441  -23.9101  -42.1684 H         1 UNK         0.0786 
     93 H93        27.8515  -23.5925  -41.1641 H         1 UNK         0.0786 
     94 H94        26.3480  -22.7459  -40.8458 H         1 UNK         0.0786 
     95 H95        25.2800  -26.9670  -41.2254 H         1 UNK         0.3172 
     96 H96        27.8914  -28.4233  -41.5377 H         1 UNK         0.0595 
     97 H97        25.5676  -28.2307  -43.5236 H         1 UNK         0.0839 
     98 H98        27.0175  -29.2032  -43.7289 H         1 UNK         0.0839 
     99 H99        27.1402  -27.4514  -43.6989 H         1 UNK         0.0839 
    100 H100       24.4444  -28.6538  -40.8062 H         1 UNK         0.2998 
    101 H101       23.1302  -30.1688  -39.9469 H         1 UNK         0.0822 
    102 H102       23.9152  -32.0685  -38.5964 H         1 UNK         0.0787 
    103 H103       25.5471  -31.9302  -39.2477 H         1 UNK         0.0787 
    104 H104       24.8879  -30.6619  -38.2238 H         1 UNK         0.0787 
    105 H105       24.0824  -33.2005  -40.3419 H         1 UNK         0.3055 
    106 H106       23.6052  -34.8787  -41.7147 H         1 UNK         0.1106 
    107 H107       24.3309  -34.7644  -44.0573 H         1 UNK         0.0828 
    108 H108       24.3267  -33.0087  -44.0307 H         1 UNK         0.0828 
    109 H109       25.4919  -33.9063  -43.0591 H         1 UNK         0.0828 
    110 H110       21.4201  -33.2692  -40.8741 H         1 UNK         0.2931 
    111 H111       19.4233  -33.0442  -42.9129 H         1 UNK         0.0412 
    112 H112       17.8138  -36.2074  -43.0751 H         1 UNK         0.3472 
    113 H113       17.8597  -34.5516  -43.6266 H         1 UNK         0.3472 
    114 H114       19.4818  -31.8115  -40.6617 H         1 UNK         0.0970 
    115 H115       19.0116  -33.2930  -39.8858 H         1 UNK         0.0970 
    116 H116       17.9717  -30.0655  -41.1057 H         1 UNK         0.0612 
    117 H117       16.3073  -30.1727  -41.6065 H         1 UNK         0.0612 
@<TRIPOS>BOND
     1    1    2 1    
     2    1   62 1    
     3    1   63 1    
     4    1   64 1    
     5    2    3 2    
     6    2    4 am   BACKBONE|DICT|INTERRES
     7    4    5 1    
     8    4   65 1    
     9    5    6 1    
    10    5   25 1    
    11    5   66 1    
    12    6    7 1    
    13    6   67 1    
    14    6   68 1    
    15    7    8 1    
    16    8    9 1    
    17    8   69 1    
    18    8   70 1    
    19    9   10 ar   
    20    9   14 ar   
    21   10   11 ar   
    22   10   71 1    
    23   11   12 ar   
    24   11   61 1    
    25   12   13 ar   
    26   12   72 1    
    27   13   14 ar   
    28   13   15 1    
    29   14   73 1    
    30   15   16 1    
    31   15   74 1    
    32   15   75 1    
    33   16   17 1    
    34   17   18 1    
    35   17   76 1    
    36   17   77 1    
    37   18   19 1    
    38   18   27 1    
    39   18   78 1    
    40   19   20 am   BACKBONE|DICT|INTERRES
    41   19   79 1    
    42   20   21 2    
    43   20   22 1    
    44   22   23 1    
    45   22   24 1    
    46   22   80 1    
    47   23   81 1    
    48   23   82 1    
    49   23   83 1    
    50   24   25 am   BACKBONE|DICT|INTERRES
    51   24   84 1    
    52   25   26 2    
    53   27   28 2    
    54   27   29 am   BACKBONE|DICT|INTERRES
    55   29   30 1    
    56   29   85 1    
    57   30   31 1    
    58   30   32 1    
    59   30   86 1    
    60   31   87 1    
    61   31   88 1    
    62   31   89 1    
    63   32   33 2    
    64   32   34 am   BACKBONE|DICT|INTERRES
    65   34   35 1    
    66   34   90 1    
    67   35   36 1    
    68   35   37 1    
    69   35   91 1    
    70   36   92 1    
    71   36   93 1    
    72   36   94 1    
    73   37   38 2    
    74   37   39 am   BACKBONE|DICT|INTERRES
    75   39   40 1    
    76   39   95 1    
    77   40   41 1    
    78   40   42 1    
    79   40   96 1    
    80   41   97 1    
    81   41   98 1    
    82   41   99 1    
    83   42   43 2    
    84   42   44 am   BACKBONE|DICT|INTERRES
    85   44   45 1    
    86   44  100 1    
    87   45   46 1    
    88   45   47 1    
    89   45  101 1    
    90   46  102 1    
    91   46  103 1    
    92   46  104 1    
    93   47   48 2    
    94   47   49 am   BACKBONE|DICT|INTERRES
    95   49   50 1    
    96   49  105 1    
    97   50   51 1    
    98   50   52 1    
    99   50  106 1    
   100   51  107 1    
   101   51  108 1    
   102   51  109 1    
   103   52   53 2    
   104   52   54 am   BACKBONE|DICT|INTERRES
   105   54   55 1    
   106   54  110 1    
   107   55   56 1    
   108   55   59 1    
   109   55  111 1    
   110   56   57 am   BACKBONE|DICT|INTERRES
   111   56   58 2    
   112   57  112 1    
   113   57  113 1    
   114   59   60 1    
   115   59  114 1    
   116   59  115 1    
   117   60   61 1    
   118   61  116 1    
   119   61  117 1    
@<TRIPOS>SUBSTRUCTURE
     1 UNK         1 GROUP             0       ****    0 ROOT    
