@<TRIPOS>MOLECULE
3R8
117   119    1
SMALL
USER_CHARGES


@<TRIPOS>ATOM
      1 CA         19.0700  -27.7399  -42.1758 C.3       0 UNK        -0.2013 
      2 C          18.3713  -26.5164  -42.7381 C.2       0 UNK         0.4866 
      3 O          18.6802  -25.3938  -42.3395 O.2       0 UNK        -0.5176 
      4 N          17.4207  -26.7295  -43.6545 N.am      1 UNK        -0.4884 
      5 CA         16.5846  -25.6850  -44.2569 C.3       1 UNK         0.0853 
      6 C6         15.3610  -26.2698  -45.0088 C.3       10 UNK        -0.0849 
      7 S7         14.3899  -27.4537  -44.0096 S.3       10 UNK        -0.2776 
      8 C8         14.6313  -29.0171  -44.9186 C.3       10 UNK         0.0316 
      9 C9         16.0079  -29.6239  -44.6766 C.ar      10 UNK        -0.0863 
     10 C10        16.2067  -30.5145  -43.6144 C.ar      10 UNK        -0.1009 
     11 C11        17.4586  -31.1027  -43.4081 C.ar      10 UNK        -0.0712 
     12 C12        18.5131  -30.7850  -44.2646 C.ar      10 UNK        -0.0894 
     13 C13        18.3422  -29.8667  -45.3040 C.ar      10 UNK        -0.0745 
     14 C14        17.0782  -29.3114  -45.5230 C.ar      10 UNK        -0.0972 
     15 C15        19.5277  -29.4642  -46.1717 C.3       10 UNK         0.0209 
     16 S16        20.9107  -28.8672  -45.1477 S.3       10 UNK        -0.2568 
     17 C17        22.0442  -28.1593  -46.3886 C.3       10 UNK        -0.0983 
     18 CA         22.4017  -26.6692  -46.1117 C.3       3 UNK         0.0876 
     19 N          21.2272  -25.7982  -46.0812 N.am      3 UNK        -0.4424 
     20 C          20.4791  -25.4671  -47.1365 C.2       2 UNK         0.4918 
     21 O          20.7134  -25.8484  -48.2845 O.2       2 UNK        -0.4875 
     22 CA         19.2431  -24.6023  -46.8463 C.3       2 UNK         0.0481 
     23 CB         18.4480  -24.2562  -48.1250 C.3       2 UNK        -0.1831 
     24 N          18.3926  -25.2952  -45.8776 N.am      2 UNK        -0.4498 
     25 C          17.3811  -24.7475  -45.1891 C.2       1 UNK         0.5027 
     26 O          17.0576  -23.5616  -45.2707 O.2       1 UNK        -0.4969 
     27 C          23.1951  -26.4661  -44.8040 C.2       3 UNK         0.5005 
     28 O          22.8027  -25.6438  -43.9683 O.2       3 UNK        -0.5279 
     29 N          24.2884  -27.2244  -44.6368 N.am      4 UNK        -0.4463 
     30 CA         25.1063  -27.2834  -43.4223 C.3       4 UNK         0.0283 
     31 CB         26.4645  -27.9256  -43.7603 C.3       4 UNK        -0.1875 
     32 C          24.3718  -28.0456  -42.3044 C.2       4 UNK         0.4949 
     33 O          24.6631  -29.2182  -42.0615 O.2       4 UNK        -0.5039 
     34 N          23.4108  -27.3635  -41.6681 N.am      5 UNK        -0.4663 
     35 CA         22.4585  -27.8858  -40.6814 C.3       5 UNK         0.0242 
     36 CB         21.6604  -26.7144  -40.0856 C.3       5 UNK        -0.1982 
     37 C          23.0706  -28.7309  -39.5570 C.2       5 UNK         0.5017 
     38 O          22.5203  -29.7816  -39.2346 O.2       5 UNK        -0.5012 
     39 N          24.2122  -28.2793  -39.0197 N.am      6 UNK        -0.4439 
     40 CA         24.9624  -28.9483  -37.9525 C.3       6 UNK         0.0297 
     41 CB         26.1150  -28.0377  -37.4990 C.3       6 UNK        -0.2006 
     42 C          25.4974  -30.3428  -38.3307 C.2       6 UNK         0.4892 
     43 O          25.6920  -31.1671  -37.4364 O.2       6 UNK        -0.5089 
     44 N          25.7255  -30.5806  -39.6291 N.am      7 UNK        -0.4243 
     45 CA         26.1263  -31.8762  -40.1735 C.3       7 UNK         0.0196 
     46 CB         27.1721  -31.6585  -41.2802 C.3       7 UNK        -0.2007 
     47 C          24.9155  -32.6436  -40.7237 C.2       7 UNK         0.5020 
     48 O          24.8438  -33.8600  -40.5480 O.2       7 UNK        -0.5147 
     49 N          24.0055  -31.9330  -41.4038 N.am      8 UNK        -0.4734 
     50 CA         22.8753  -32.5147  -42.1282 C.3       8 UNK         0.0238 
     51 CB         22.3149  -31.4754  -43.1095 C.3       8 UNK        -0.1912 
     52 C          21.7606  -33.0689  -41.2255 C.2       8 UNK         0.5038 
     53 O          21.2281  -34.1366  -41.5329 O.2       8 UNK        -0.5046 
     54 N          21.4203  -32.3507  -40.1489 N.am      9 UNK        -0.4200 
     55 CA         20.3518  -32.7065  -39.2069 C.3       9 UNK         0.0839 
     56 C          20.4984  -31.8865  -37.9003 C.2       9 UNK         0.5513 
     57 N          19.6338  -30.9136  -37.6454 N.am      9 UNK        -0.7519 
     58 O          21.3774  -32.1652  -37.0883 O.2       9 UNK        -0.4960 
     59 C59        18.9153  -32.7330  -39.8231 C.3       10 UNK        -0.0876 
     60 S60        18.4696  -31.2734  -40.8338 S.3       10 UNK        -0.2414 
     61 C61        17.6914  -32.0829  -42.2686 C.3       10 UNK         0.0169 
     62 H62        20.0930  -27.7755  -42.5436 H         1 UNK         0.0903 
     63 H63        19.0863  -27.7042  -41.0875 H         1 UNK         0.0903 
     64 H64        18.5697  -28.6600  -42.4691 H         1 UNK         0.0903 
     65 H65        17.1860  -27.6793  -43.9154 H         1 UNK         0.3096 
     66 H66        16.2065  -25.0671  -43.4390 H         1 UNK         0.1121 
     67 H67        14.6875  -25.4613  -45.3001 H         1 UNK         0.0849 
     68 H68        15.6659  -26.7427  -45.9429 H         1 UNK         0.0849 
     69 H69        13.8619  -29.7234  -44.6026 H         1 UNK         0.0865 
     70 H70        14.4646  -28.8570  -45.9850 H         1 UNK         0.0865 
     71 H71        15.3855  -30.7557  -42.9530 H         1 UNK         0.1346 
     72 H72        19.4829  -31.2281  -44.0975 H         1 UNK         0.1412 
     73 H73        16.9316  -28.6270  -46.3470 H         1 UNK         0.1426 
     74 H74        19.2414  -28.6820  -46.8766 H         1 UNK         0.0716 
     75 H75        19.8555  -30.3208  -46.7620 H         1 UNK         0.0716 
     76 H76        21.5974  -28.2525  -47.3791 H         1 UNK         0.0695 
     77 H77        22.9408  -28.7794  -46.4264 H         1 UNK         0.0695 
     78 H78        23.0510  -26.3170  -46.9162 H         1 UNK         0.0983 
     79 H79        21.0280  -25.4154  -45.1646 H         1 UNK         0.3095 
     80 H80        19.6000  -23.6735  -46.3969 H         1 UNK         0.0454 
     81 H81        19.0869  -23.7699  -48.8631 H         1 UNK         0.0851 
     82 H82        17.6262  -23.5710  -47.9186 H         1 UNK         0.0851 
     83 H83        18.0300  -25.1489  -48.5915 H         1 UNK         0.0851 
     84 H84        18.6116  -26.2686  -45.7139 H         1 UNK         0.2976 
     85 H85        24.5247  -27.8896  -45.3588 H         1 UNK         0.3116 
     86 H86        25.2945  -26.2661  -43.0721 H         1 UNK         0.0646 
     87 H87        27.0966  -27.9887  -42.8734 H         1 UNK         0.0847 
     88 H88        27.0074  -27.3401  -44.5023 H         1 UNK         0.0847 
     89 H89        26.3509  -28.9385  -44.1491 H         1 UNK         0.0847 
     90 H90        23.2147  -26.4343  -42.0241 H         1 UNK         0.3040 
     91 H91        21.7730  -28.5404  -41.2207 H         1 UNK         0.1015 
     92 H92        20.8989  -27.0727  -39.3912 H         1 UNK         0.0786 
     93 H93        21.1501  -26.1415  -40.8600 H         1 UNK         0.0786 
     94 H94        22.3035  -26.0258  -39.5363 H         1 UNK         0.0786 
     95 H95        24.5906  -27.4127  -39.3743 H         1 UNK         0.3172 
     96 H96        24.2810  -29.0820  -37.1096 H         1 UNK         0.0595 
     97 H97        26.8195  -27.8439  -38.3089 H         1 UNK         0.0839 
     98 H98        26.6760  -28.4960  -36.6832 H         1 UNK         0.0839 
     99 H99        25.7461  -27.0785  -37.1354 H         1 UNK         0.0839 
    100 H100       25.4941  -29.8604  -40.3045 H         1 UNK         0.2998 
    101 H101       26.5851  -32.4881  -39.3937 H         1 UNK         0.0822 
    102 H102       28.0598  -31.1592  -40.8917 H         1 UNK         0.0787 
    103 H103       26.7792  -31.0530  -42.0982 H         1 UNK         0.0787 
    104 H104       27.4946  -32.6104  -41.7042 H         1 UNK         0.0787 
    105 H105       24.1667  -30.9377  -41.5383 H         1 UNK         0.3055 
    106 H106       23.2608  -33.3512  -42.7158 H         1 UNK         0.1106 
    107 H107       21.8283  -30.6470  -42.5932 H         1 UNK         0.0828 
    108 H108       23.0972  -31.0591  -43.7447 H         1 UNK         0.0828 
    109 H109       21.5794  -31.9336  -43.7696 H         1 UNK         0.0828 
    110 H110       21.9167  -31.4896  -39.9317 H         1 UNK         0.2931 
    111 H111       20.5598  -33.7329  -38.8973 H         1 UNK         0.0412 
    112 H112       18.9262  -30.6760  -38.3241 H         1 UNK         0.3472 
    113 H113       19.7191  -30.3849  -36.7919 H         1 UNK         0.3472 
    114 H114       18.8219  -33.6272  -40.4402 H         1 UNK         0.0970 
    115 H115       18.1637  -32.8601  -39.0420 H         1 UNK         0.0970 
    116 H116       16.7510  -32.5406  -41.9580 H         1 UNK         0.0612 
    117 H117       18.3315  -32.8937  -42.6205 H         1 UNK         0.0612 
@<TRIPOS>BOND
     1    1    2 1    
     2    1   62 1    
     3    1   63 1    
     4    1   64 1    
     5    2    3 2    
     6    2    4 am   BACKBONE|DICT|INTERRES
     7    4    5 1    
     8    4   65 1    
     9    5    6 1    
    10    5   25 1    
    11    5   66 1    
    12    6    7 1    
    13    6   67 1    
    14    6   68 1    
    15    7    8 1    
    16    8    9 1    
    17    8   69 1    
    18    8   70 1    
    19    9   10 ar   
    20    9   14 ar   
    21   10   11 ar   
    22   10   71 1    
    23   11   12 ar   
    24   11   61 1    
    25   12   13 ar   
    26   12   72 1    
    27   13   14 ar   
    28   13   15 1    
    29   14   73 1    
    30   15   16 1    
    31   15   74 1    
    32   15   75 1    
    33   16   17 1    
    34   17   18 1    
    35   17   76 1    
    36   17   77 1    
    37   18   19 1    
    38   18   27 1    
    39   18   78 1    
    40   19   20 am   BACKBONE|DICT|INTERRES
    41   19   79 1    
    42   20   21 2    
    43   20   22 1    
    44   22   23 1    
    45   22   24 1    
    46   22   80 1    
    47   23   81 1    
    48   23   82 1    
    49   23   83 1    
    50   24   25 am   BACKBONE|DICT|INTERRES
    51   24   84 1    
    52   25   26 2    
    53   27   28 2    
    54   27   29 am   BACKBONE|DICT|INTERRES
    55   29   30 1    
    56   29   85 1    
    57   30   31 1    
    58   30   32 1    
    59   30   86 1    
    60   31   87 1    
    61   31   88 1    
    62   31   89 1    
    63   32   33 2    
    64   32   34 am   BACKBONE|DICT|INTERRES
    65   34   35 1    
    66   34   90 1    
    67   35   36 1    
    68   35   37 1    
    69   35   91 1    
    70   36   92 1    
    71   36   93 1    
    72   36   94 1    
    73   37   38 2    
    74   37   39 am   BACKBONE|DICT|INTERRES
    75   39   40 1    
    76   39   95 1    
    77   40   41 1    
    78   40   42 1    
    79   40   96 1    
    80   41   97 1    
    81   41   98 1    
    82   41   99 1    
    83   42   43 2    
    84   42   44 am   BACKBONE|DICT|INTERRES
    85   44   45 1    
    86   44  100 1    
    87   45   46 1    
    88   45   47 1    
    89   45  101 1    
    90   46  102 1    
    91   46  103 1    
    92   46  104 1    
    93   47   48 2    
    94   47   49 am   BACKBONE|DICT|INTERRES
    95   49   50 1    
    96   49  105 1    
    97   50   51 1    
    98   50   52 1    
    99   50  106 1    
   100   51  107 1    
   101   51  108 1    
   102   51  109 1    
   103   52   53 2    
   104   52   54 am   BACKBONE|DICT|INTERRES
   105   54   55 1    
   106   54  110 1    
   107   55   56 1    
   108   55   59 1    
   109   55  111 1    
   110   56   57 am   BACKBONE|DICT|INTERRES
   111   56   58 2    
   112   57  112 1    
   113   57  113 1    
   114   59   60 1    
   115   59  114 1    
   116   59  115 1    
   117   60   61 1    
   118   61  116 1    
   119   61  117 1    
@<TRIPOS>SUBSTRUCTURE
     1 UNK         1 GROUP             0       ****    0 ROOT    
