@<TRIPOS>MOLECULE
3R8
117   119    1
SMALL
USER_CHARGES


@<TRIPOS>ATOM
      1 CA         17.3179  -28.5841  -40.8700 C.3       0 UNK        -0.2013 
      2 C          16.8400  -27.2383  -41.3880 C.2       0 UNK         0.4866 
      3 O          15.8619  -26.6933  -40.8758 O.2       0 UNK        -0.5176 
      4 N          17.5176  -26.7097  -42.4114 N.am      1 UNK        -0.4884 
      5 CA         17.1971  -25.4396  -43.0581 C.3       1 UNK         0.0853 
      6 C6         16.1014  -25.5823  -44.1537 C.3       10 UNK        -0.0849 
      7 S7         16.5498  -26.6028  -45.6016 S.3       10 UNK        -0.2776 
      8 C8         16.1893  -28.3097  -45.0446 C.3       10 UNK         0.0316 
      9 C9         17.3910  -29.2587  -45.0964 C.ar      10 UNK        -0.0863 
     10 C10        17.3983  -30.4022  -44.2907 C.ar      10 UNK        -0.1009 
     11 C11        18.4390  -31.3330  -44.3779 C.ar      10 UNK        -0.0712 
     12 C12        19.5012  -31.0948  -45.2575 C.ar      10 UNK        -0.0894 
     13 C13        19.5262  -29.9503  -46.0622 C.ar      10 UNK        -0.0745 
     14 C14        18.4525  -29.0543  -45.9860 C.ar      10 UNK        -0.0972 
     15 C15        20.6873  -29.7499  -47.0435 C.3       10 UNK         0.0209 
     16 S16        20.8600  -28.0490  -47.7030 S.3       10 UNK        -0.2568 
     17 C17        22.4432  -27.4434  -47.0153 C.3       10 UNK        -0.0983 
     18 CA         22.3353  -26.5142  -45.7726 C.3       3 UNK         0.0876 
     19 N          21.1847  -25.6051  -45.8144 N.am      3 UNK        -0.4424 
     20 C          21.1337  -24.4242  -45.1838 C.2       2 UNK         0.4918 
     21 O          22.0695  -23.9468  -44.5414 O.2       2 UNK        -0.4875 
     22 CA         19.8125  -23.6417  -45.2875 C.3       2 UNK         0.0481 
     23 CB         19.5213  -23.2256  -46.7396 C.3       2 UNK        -0.1831 
     24 N          18.6624  -24.3675  -44.7405 N.am      2 UNK        -0.4498 
     25 C          18.5131  -24.7439  -43.4623 C.2       1 UNK         0.5027 
     26 O          19.3625  -24.5449  -42.5922 O.2       1 UNK        -0.4969 
     27 C          22.3754  -27.3079  -44.4567 C.2       3 UNK         0.5005 
     28 O          23.4359  -27.4018  -43.8341 O.2       3 UNK        -0.5279 
     29 N          21.2281  -27.8949  -44.0789 N.am      4 UNK        -0.4463 
     30 CA         20.9991  -28.7164  -42.8801 C.3       4 UNK         0.0283 
     31 CB         20.9765  -27.8220  -41.6228 C.3       4 UNK        -0.1875 
     32 C          21.9769  -29.9017  -42.7208 C.2       4 UNK         0.4949 
     33 O          22.2191  -30.3365  -41.5952 O.2       4 UNK        -0.5039 
     34 N          22.5598  -30.3680  -43.8361 N.am      5 UNK        -0.4663 
     35 CA         23.6448  -31.3547  -43.9242 C.3       5 UNK         0.0242 
     36 CB         23.1128  -32.7686  -43.6153 C.3       5 UNK        -0.1982 
     37 C          24.8764  -30.9664  -43.0760 C.2       5 UNK         0.5017 
     38 O          25.4625  -31.8257  -42.4172 O.2       5 UNK        -0.5012 
     39 N          25.2179  -29.6666  -43.0925 N.am      6 UNK        -0.4439 
     40 CA         26.2454  -29.0071  -42.2767 C.3       6 UNK         0.0297 
     41 CB         27.6558  -29.5628  -42.5716 C.3       6 UNK        -0.2006 
     42 C          25.8809  -29.0133  -40.7789 C.2       6 UNK         0.4892 
     43 O          26.7209  -29.3330  -39.9360 O.2       6 UNK        -0.5089 
     44 N          24.6208  -28.6501  -40.4942 N.am      7 UNK        -0.4243 
     45 CA         23.9833  -28.5706  -39.1727 C.3       7 UNK         0.0196 
     46 CB         24.6451  -27.4791  -38.3041 C.3       7 UNK        -0.2007 
     47 C          23.8690  -29.9298  -38.4523 C.2       7 UNK         0.5020 
     48 O          23.9115  -29.9764  -37.2216 O.2       7 UNK        -0.5147 
     49 N          23.7036  -31.0091  -39.2259 N.am      8 UNK        -0.4734 
     50 CA         23.4336  -32.3573  -38.7232 C.3       8 UNK         0.0238 
     51 CB         24.1516  -33.3872  -39.6086 C.3       8 UNK        -0.1912 
     52 C          21.9246  -32.6456  -38.6661 C.2       8 UNK         0.5038 
     53 O          21.4906  -33.3807  -37.7779 O.2       8 UNK        -0.5046 
     54 N          21.1549  -32.0680  -39.5982 N.am      9 UNK        -0.4200 
     55 CA         19.6880  -32.1330  -39.6377 C.3       9 UNK         0.0839 
     56 C          19.0507  -31.2667  -38.5195 C.2       9 UNK         0.5513 
     57 N          17.9503  -31.7202  -37.9359 N.am      9 UNK        -0.7519 
     58 O          19.5139  -30.1696  -38.2146 O.2       9 UNK        -0.4960 
     59 C59        19.1367  -31.7135  -41.0241 C.3       10 UNK        -0.0876 
     60 S60        19.7026  -32.8115  -42.3635 S.3       10 UNK        -0.2414 
     61 C61        18.3712  -32.6386  -43.5921 C.3       10 UNK         0.0169 
     62 H62        16.4766  -29.1788  -40.5148 H         1 UNK         0.0903 
     63 H63        17.8141  -29.1452  -41.6588 H         1 UNK         0.0903 
     64 H64        18.0148  -28.4478  -40.0433 H         1 UNK         0.0903 
     65 H65        18.3322  -27.1794  -42.7778 H         1 UNK         0.3096 
     66 H66        16.7830  -24.7749  -42.2960 H         1 UNK         0.1121 
     67 H67        15.1909  -25.9882  -43.7101 H         1 UNK         0.0849 
     68 H68        15.8157  -24.5936  -44.5171 H         1 UNK         0.0849 
     69 H69        15.7756  -28.2905  -44.0360 H         1 UNK         0.0865 
     70 H70        15.4050  -28.7177  -45.6833 H         1 UNK         0.0865 
     71 H71        16.5666  -30.5919  -43.6256 H         1 UNK         0.1346 
     72 H72        20.2994  -31.8210  -45.3304 H         1 UNK         0.1412 
     73 H73        18.4237  -28.2026  -46.6476 H         1 UNK         0.1426 
     74 H74        20.5292  -30.4202  -47.8894 H         1 UNK         0.0716 
     75 H75        21.6237  -30.0640  -46.5832 H         1 UNK         0.0716 
     76 H76        22.9130  -26.8747  -47.8194 H         1 UNK         0.0695 
     77 H77        23.1227  -28.2796  -46.8390 H         1 UNK         0.0695 
     78 H78        23.2396  -25.9003  -45.7696 H         1 UNK         0.0983 
     79 H79        20.3863  -25.9190  -46.3469 H         1 UNK         0.3095 
     80 H80        19.9284  -22.7281  -44.7005 H         1 UNK         0.0454 
     81 H81        19.3123  -24.0834  -47.3797 H         1 UNK         0.0851 
     82 H82        18.6642  -22.5542  -46.7932 H         1 UNK         0.0851 
     83 H83        20.3711  -22.6954  -47.1719 H         1 UNK         0.0851 
     84 H84        17.9272  -24.6170  -45.3894 H         1 UNK         0.2976 
     85 H85        20.4360  -27.7995  -44.6990 H         1 UNK         0.3116 
     86 H86        20.0090  -29.1561  -42.9981 H         1 UNK         0.0646 
     87 H87        21.9523  -27.3764  -41.4308 H         1 UNK         0.0847 
     88 H88        20.2638  -27.0053  -41.7222 H         1 UNK         0.0847 
     89 H89        20.6934  -28.3889  -40.7346 H         1 UNK         0.0847 
     90 H90        22.2947  -29.9283  -44.7038 H         1 UNK         0.3040 
     91 H91        23.9876  -31.3540  -44.9601 H         1 UNK         0.1015 
     92 H92        23.8952  -33.5205  -43.7249 H         1 UNK         0.0786 
     93 H93        22.3052  -33.0432  -44.2934 H         1 UNK         0.0786 
     94 H94        22.7283  -32.8402  -42.5989 H         1 UNK         0.0786 
     95 H95        24.6240  -29.0298  -43.6168 H         1 UNK         0.3172 
     96 H96        26.2414  -27.9597  -42.5825 H         1 UNK         0.0595 
     97 H97        27.7715  -30.5909  -42.2277 H         1 UNK         0.0839 
     98 H98        28.4189  -28.9686  -42.0675 H         1 UNK         0.0839 
     99 H99        27.8782  -29.5376  -43.6381 H         1 UNK         0.0839 
    100 H100       24.0160  -28.4449  -41.2777 H         1 UNK         0.2998 
    101 H101       22.9550  -28.2568  -39.3550 H         1 UNK         0.0822 
    102 H102       24.0803  -27.3134  -37.3859 H         1 UNK         0.0787 
    103 H103       24.6899  -26.5258  -38.8306 H         1 UNK         0.0787 
    104 H104       25.6605  -27.7519  -38.0150 H         1 UNK         0.0787 
    105 H105       23.6109  -30.8648  -40.2262 H         1 UNK         0.3055 
    106 H106       23.8260  -32.4581  -37.7086 H         1 UNK         0.1106 
    107 H107       25.2273  -33.2111  -39.6271 H         1 UNK         0.0828 
    108 H108       23.9933  -34.4003  -39.2365 H         1 UNK         0.0828 
    109 H109       23.7941  -33.3576  -40.6368 H         1 UNK         0.0828 
    110 H110       21.5873  -31.4616  -40.2900 H         1 UNK         0.2931 
    111 H111       19.4010  -33.1726  -39.4646 H         1 UNK         0.0412 
    112 H112       17.5116  -31.1637  -37.2186 H         1 UNK         0.3472 
    113 H113       17.5577  -32.6151  -38.1847 H         1 UNK         0.3472 
    114 H114       18.0452  -31.7137  -41.0133 H         1 UNK         0.0970 
    115 H115       19.4454  -30.6965  -41.2585 H         1 UNK         0.0970 
    116 H116       18.4482  -33.4682  -44.2961 H         1 UNK         0.0612 
    117 H117       17.4047  -32.7531  -43.0991 H         1 UNK         0.0612 
@<TRIPOS>BOND
     1    1    2 1    
     2    1   62 1    
     3    1   63 1    
     4    1   64 1    
     5    2    3 2    
     6    2    4 am   BACKBONE|DICT|INTERRES
     7    4    5 1    
     8    4   65 1    
     9    5    6 1    
    10    5   25 1    
    11    5   66 1    
    12    6    7 1    
    13    6   67 1    
    14    6   68 1    
    15    7    8 1    
    16    8    9 1    
    17    8   69 1    
    18    8   70 1    
    19    9   10 ar   
    20    9   14 ar   
    21   10   11 ar   
    22   10   71 1    
    23   11   12 ar   
    24   11   61 1    
    25   12   13 ar   
    26   12   72 1    
    27   13   14 ar   
    28   13   15 1    
    29   14   73 1    
    30   15   16 1    
    31   15   74 1    
    32   15   75 1    
    33   16   17 1    
    34   17   18 1    
    35   17   76 1    
    36   17   77 1    
    37   18   19 1    
    38   18   27 1    
    39   18   78 1    
    40   19   20 am   BACKBONE|DICT|INTERRES
    41   19   79 1    
    42   20   21 2    
    43   20   22 1    
    44   22   23 1    
    45   22   24 1    
    46   22   80 1    
    47   23   81 1    
    48   23   82 1    
    49   23   83 1    
    50   24   25 am   BACKBONE|DICT|INTERRES
    51   24   84 1    
    52   25   26 2    
    53   27   28 2    
    54   27   29 am   BACKBONE|DICT|INTERRES
    55   29   30 1    
    56   29   85 1    
    57   30   31 1    
    58   30   32 1    
    59   30   86 1    
    60   31   87 1    
    61   31   88 1    
    62   31   89 1    
    63   32   33 2    
    64   32   34 am   BACKBONE|DICT|INTERRES
    65   34   35 1    
    66   34   90 1    
    67   35   36 1    
    68   35   37 1    
    69   35   91 1    
    70   36   92 1    
    71   36   93 1    
    72   36   94 1    
    73   37   38 2    
    74   37   39 am   BACKBONE|DICT|INTERRES
    75   39   40 1    
    76   39   95 1    
    77   40   41 1    
    78   40   42 1    
    79   40   96 1    
    80   41   97 1    
    81   41   98 1    
    82   41   99 1    
    83   42   43 2    
    84   42   44 am   BACKBONE|DICT|INTERRES
    85   44   45 1    
    86   44  100 1    
    87   45   46 1    
    88   45   47 1    
    89   45  101 1    
    90   46  102 1    
    91   46  103 1    
    92   46  104 1    
    93   47   48 2    
    94   47   49 am   BACKBONE|DICT|INTERRES
    95   49   50 1    
    96   49  105 1    
    97   50   51 1    
    98   50   52 1    
    99   50  106 1    
   100   51  107 1    
   101   51  108 1    
   102   51  109 1    
   103   52   53 2    
   104   52   54 am   BACKBONE|DICT|INTERRES
   105   54   55 1    
   106   54  110 1    
   107   55   56 1    
   108   55   59 1    
   109   55  111 1    
   110   56   57 am   BACKBONE|DICT|INTERRES
   111   56   58 2    
   112   57  112 1    
   113   57  113 1    
   114   59   60 1    
   115   59  114 1    
   116   59  115 1    
   117   60   61 1    
   118   61  116 1    
   119   61  117 1    
@<TRIPOS>SUBSTRUCTURE
     1 UNK         1 GROUP             0       ****    0 ROOT    
