@<TRIPOS>MOLECULE
3R8
117   119    1
SMALL
USER_CHARGES


@<TRIPOS>ATOM
      1 CA         16.7304  -25.5754  -41.8833 C.3       0 UNK        -0.2013 
      2 C          17.8060  -25.3583  -42.9351 C.2       0 UNK         0.4866 
      3 O          18.7243  -24.5720  -42.7070 O.2       0 UNK        -0.5176 
      4 N          17.6901  -26.0369  -44.0863 N.am      1 UNK        -0.4884 
      5 CA         18.5286  -25.8472  -45.2819 C.3       1 UNK         0.0853 
      6 C6         18.0259  -26.6333  -46.5291 C.3       10 UNK        -0.0849 
      7 S7         16.2123  -26.8699  -46.5956 S.3       10 UNK        -0.2776 
      8 C8         16.0535  -28.6866  -46.7076 C.3       10 UNK         0.0316 
      9 C9         16.7841  -29.4346  -45.5957 C.ar      10 UNK        -0.0863 
     10 C10        17.9108  -30.2080  -45.8970 C.ar      10 UNK        -0.1009 
     11 C11        18.5712  -30.9244  -44.8955 C.ar      10 UNK        -0.0712 
     12 C12        18.0945  -30.8703  -43.5835 C.ar      10 UNK        -0.0894 
     13 C13        16.9714  -30.1002  -43.2660 C.ar      10 UNK        -0.0745 
     14 C14        16.3205  -29.3835  -44.2769 C.ar      10 UNK        -0.0972 
     15 C15        16.4335  -30.0742  -41.8421 C.3       10 UNK         0.0209 
     16 S16        17.2675  -28.8260  -40.8116 S.3       10 UNK        -0.2568 
     17 C17        18.7374  -29.7260  -40.2110 C.3       10 UNK        -0.0983 
     18 CA         20.0760  -28.9779  -40.4311 C.3       3 UNK         0.0876 
     19 N          20.2728  -28.5629  -41.8297 N.am      3 UNK        -0.4424 
     20 C          21.4619  -28.2198  -42.3486 C.2       2 UNK         0.4918 
     21 O          22.5014  -28.2468  -41.6905 O.2       2 UNK        -0.4875 
     22 CA         21.5317  -27.7168  -43.7958 C.3       2 UNK         0.0481 
     23 CB         22.1416  -28.7669  -44.7357 C.3       2 UNK        -0.1831 
     24 N          20.2299  -27.2797  -44.2943 N.am      2 UNK        -0.4498 
     25 C          20.0102  -26.1711  -45.0117 C.2       1 UNK         0.5027 
     26 O          20.8935  -25.4219  -45.4304 O.2       1 UNK        -0.4969 
     27 C          20.3026  -27.8481  -39.4008 C.2       3 UNK         0.5005 
     28 O          20.4705  -28.1452  -38.2171 O.2       3 UNK        -0.5279 
     29 N          20.3492  -26.5923  -39.8637 N.am      4 UNK        -0.4463 
     30 CA         20.6841  -25.4112  -39.0710 C.3       4 UNK         0.0283 
     31 CB         19.4155  -24.5535  -38.8998 C.3       4 UNK        -0.1875 
     32 C          21.8407  -24.6167  -39.7079 C.2       4 UNK         0.4949 
     33 O          21.9429  -23.4160  -39.4509 O.2       4 UNK        -0.5039 
     34 N          22.6851  -25.2645  -40.5304 N.am      5 UNK        -0.4663 
     35 CA         23.7583  -24.5798  -41.2652 C.3       5 UNK         0.0242 
     36 CB         23.1914  -23.9346  -42.5452 C.3       5 UNK        -0.1982 
     37 C          24.9885  -25.4403  -41.5974 C.2       5 UNK         0.5017 
     38 O          26.0814  -24.8770  -41.6733 O.2       5 UNK        -0.5012 
     39 N          24.8254  -26.7523  -41.8220 N.am      6 UNK        -0.4439 
     40 CA         25.8840  -27.6268  -42.3424 C.3       6 UNK         0.0297 
     41 CB         25.9212  -27.5400  -43.8826 C.3       6 UNK        -0.2006 
     42 C          25.7697  -29.0720  -41.8245 C.2       6 UNK         0.4892 
     43 O          26.1238  -30.0050  -42.5457 O.2       6 UNK        -0.5089 
     44 N          25.3070  -29.2271  -40.5747 N.am      7 UNK        -0.4243 
     45 CA         25.2168  -30.4825  -39.8131 C.3       7 UNK         0.0196 
     46 CB         26.6257  -31.0391  -39.5106 C.3       7 UNK        -0.2007 
     47 C          24.2718  -31.5442  -40.4181 C.2       7 UNK         0.5020 
     48 O          24.5186  -32.7413  -40.2598 O.2       7 UNK        -0.5147 
     49 N          23.1797  -31.0863  -41.0459 N.am      8 UNK        -0.4734 
     50 CA         22.0757  -31.8873  -41.5951 C.3       8 UNK         0.0238 
     51 CB         21.3345  -32.6479  -40.4682 C.3       8 UNK        -0.1912 
     52 C          22.4833  -32.7794  -42.7851 C.2       8 UNK         0.5038 
     53 O          23.4164  -32.4436  -43.5165 O.2       8 UNK        -0.5046 
     54 N          21.7165  -33.8509  -43.0058 N.am      9 UNK        -0.4200 
     55 CA         21.7988  -34.7647  -44.1485 C.3       9 UNK         0.0839 
     56 C          21.1782  -36.1418  -43.7949 C.2       9 UNK         0.5513 
     57 N          21.4361  -37.1631  -44.6002 N.am      9 UNK        -0.7519 
     58 O          20.4660  -36.2954  -42.8033 O.2       9 UNK        -0.4960 
     59 C59        21.2085  -34.1485  -45.4519 C.3       10 UNK        -0.0876 
     60 S60        19.4944  -33.5209  -45.2893 S.3       10 UNK        -0.2414 
     61 C61        19.8164  -31.7340  -45.2211 C.3       10 UNK         0.0169 
     62 H62        17.1848  -25.8337  -40.9273 H         1 UNK         0.0903 
     63 H63        16.1532  -24.6615  -41.7464 H         1 UNK         0.0903 
     64 H64        16.0419  -26.3728  -42.1622 H         1 UNK         0.0903 
     65 H65        16.9003  -26.6523  -44.2263 H         1 UNK         0.3096 
     66 H66        18.4769  -24.7824  -45.5207 H         1 UNK         0.1121 
     67 H67        18.3271  -26.1032  -47.4344 H         1 UNK         0.0849 
     68 H68        18.5086  -27.6079  -46.6068 H         1 UNK         0.0849 
     69 H69        14.9949  -28.9487  -46.6768 H         1 UNK         0.0865 
     70 H70        16.4123  -29.0083  -47.6867 H         1 UNK         0.0865 
     71 H71        18.2751  -30.2549  -46.9144 H         1 UNK         0.1346 
     72 H72        18.5949  -31.4422  -42.8157 H         1 UNK         0.1412 
     73 H73        15.4420  -28.7976  -44.0419 H         1 UNK         0.1426 
     74 H74        16.5213  -31.0599  -41.3826 H         1 UNK         0.0716 
     75 H75        15.3662  -29.8482  -41.8566 H         1 UNK         0.0716 
     76 H76        18.7906  -30.6982  -40.6985 H         1 UNK         0.0695 
     77 H77        18.5893  -29.9536  -39.1535 H         1 UNK         0.0695 
     78 H78        20.8647  -29.6930  -40.1986 H         1 UNK         0.0983 
     79 H79        19.4327  -28.5178  -42.3845 H         1 UNK         0.3095 
     80 H80        22.2143  -26.8663  -43.7693 H         1 UNK         0.0454 
     81 H81        21.4170  -29.5271  -45.0110 H         1 UNK         0.0851 
     82 H82        22.4931  -28.3040  -45.6578 H         1 UNK         0.0851 
     83 H83        22.9949  -29.2732  -44.2811 H         1 UNK         0.0851 
     84 H84        19.4235  -27.8340  -44.0489 H         1 UNK         0.2976 
     85 H85        20.1855  -26.4322  -40.8479 H         1 UNK         0.3116 
     86 H86        21.0315  -25.7039  -38.0783 H         1 UNK         0.0646 
     87 H87        19.0628  -24.1634  -39.8555 H         1 UNK         0.0847 
     88 H88        19.6006  -23.7000  -38.2464 H         1 UNK         0.0847 
     89 H89        18.6049  -25.1293  -38.4530 H         1 UNK         0.0847 
     90 H90        22.5869  -26.2630  -40.6534 H         1 UNK         0.3040 
     91 H91        24.1444  -23.7752  -40.6342 H         1 UNK         0.1015 
     92 H92        22.7325  -24.6721  -43.2028 H         1 UNK         0.0786 
     93 H93        23.9756  -23.4332  -43.1144 H         1 UNK         0.0786 
     94 H94        22.4364  -23.1836  -42.3121 H         1 UNK         0.0786 
     95 H95        23.9085  -27.1868  -41.7443 H         1 UNK         0.3172 
     96 H96        26.8487  -27.2771  -41.9689 H         1 UNK         0.0595 
     97 H97        24.9902  -27.8909  -44.3263 H         1 UNK         0.0839 
     98 H98        26.7298  -28.1450  -44.2947 H         1 UNK         0.0839 
     99 H99        26.0871  -26.5168  -44.2199 H         1 UNK         0.0839 
    100 H100       25.0366  -28.3927  -40.0730 H         1 UNK         0.2998 
    101 H101       24.7681  -30.2131  -38.8557 H         1 UNK         0.0822 
    102 H102       27.2624  -30.2820  -39.0528 H         1 UNK         0.0787 
    103 H103       26.5759  -31.8789  -38.8164 H         1 UNK         0.0787 
    104 H104       27.1222  -31.3944  -40.4141 H         1 UNK         0.0787 
    105 H105       23.1101  -30.0835  -41.1846 H         1 UNK         0.3055 
    106 H106       21.3714  -31.1740  -42.0203 H         1 UNK         0.1106 
    107 H107       20.3644  -33.0170  -40.8030 H         1 UNK         0.0828 
    108 H108       21.9086  -33.5043  -40.1121 H         1 UNK         0.0828 
    109 H109       21.1439  -32.0054  -39.6089 H         1 UNK         0.0828 
    110 H110       20.9904  -34.0942  -42.3455 H         1 UNK         0.2931 
    111 H111       22.8597  -34.9587  -44.3197 H         1 UNK         0.0412 
    112 H112       22.0244  -37.0548  -45.4120 H         1 UNK         0.3472 
    113 H113       21.0395  -38.0656  -44.3877 H         1 UNK         0.3472 
    114 H114       21.2277  -34.8777  -46.2635 H         1 UNK         0.0970 
    115 H115       21.8565  -33.3386  -45.7903 H         1 UNK         0.0970 
    116 H116       20.2468  -31.4127  -46.1709 H         1 UNK         0.0612 
    117 H117       20.5674  -31.5418  -44.4577 H         1 UNK         0.0612 
@<TRIPOS>BOND
     1    1    2 1    
     2    1   62 1    
     3    1   63 1    
     4    1   64 1    
     5    2    3 2    
     6    2    4 am   BACKBONE|DICT|INTERRES
     7    4    5 1    
     8    4   65 1    
     9    5    6 1    
    10    5   25 1    
    11    5   66 1    
    12    6    7 1    
    13    6   67 1    
    14    6   68 1    
    15    7    8 1    
    16    8    9 1    
    17    8   69 1    
    18    8   70 1    
    19    9   10 ar   
    20    9   14 ar   
    21   10   11 ar   
    22   10   71 1    
    23   11   12 ar   
    24   11   61 1    
    25   12   13 ar   
    26   12   72 1    
    27   13   14 ar   
    28   13   15 1    
    29   14   73 1    
    30   15   16 1    
    31   15   74 1    
    32   15   75 1    
    33   16   17 1    
    34   17   18 1    
    35   17   76 1    
    36   17   77 1    
    37   18   19 1    
    38   18   27 1    
    39   18   78 1    
    40   19   20 am   BACKBONE|DICT|INTERRES
    41   19   79 1    
    42   20   21 2    
    43   20   22 1    
    44   22   23 1    
    45   22   24 1    
    46   22   80 1    
    47   23   81 1    
    48   23   82 1    
    49   23   83 1    
    50   24   25 am   BACKBONE|DICT|INTERRES
    51   24   84 1    
    52   25   26 2    
    53   27   28 2    
    54   27   29 am   BACKBONE|DICT|INTERRES
    55   29   30 1    
    56   29   85 1    
    57   30   31 1    
    58   30   32 1    
    59   30   86 1    
    60   31   87 1    
    61   31   88 1    
    62   31   89 1    
    63   32   33 2    
    64   32   34 am   BACKBONE|DICT|INTERRES
    65   34   35 1    
    66   34   90 1    
    67   35   36 1    
    68   35   37 1    
    69   35   91 1    
    70   36   92 1    
    71   36   93 1    
    72   36   94 1    
    73   37   38 2    
    74   37   39 am   BACKBONE|DICT|INTERRES
    75   39   40 1    
    76   39   95 1    
    77   40   41 1    
    78   40   42 1    
    79   40   96 1    
    80   41   97 1    
    81   41   98 1    
    82   41   99 1    
    83   42   43 2    
    84   42   44 am   BACKBONE|DICT|INTERRES
    85   44   45 1    
    86   44  100 1    
    87   45   46 1    
    88   45   47 1    
    89   45  101 1    
    90   46  102 1    
    91   46  103 1    
    92   46  104 1    
    93   47   48 2    
    94   47   49 am   BACKBONE|DICT|INTERRES
    95   49   50 1    
    96   49  105 1    
    97   50   51 1    
    98   50   52 1    
    99   50  106 1    
   100   51  107 1    
   101   51  108 1    
   102   51  109 1    
   103   52   53 2    
   104   52   54 am   BACKBONE|DICT|INTERRES
   105   54   55 1    
   106   54  110 1    
   107   55   56 1    
   108   55   59 1    
   109   55  111 1    
   110   56   57 am   BACKBONE|DICT|INTERRES
   111   56   58 2    
   112   57  112 1    
   113   57  113 1    
   114   59   60 1    
   115   59  114 1    
   116   59  115 1    
   117   60   61 1    
   118   61  116 1    
   119   61  117 1    
@<TRIPOS>SUBSTRUCTURE
     1 UNK         1 GROUP             0       ****    0 ROOT    
