@<TRIPOS>MOLECULE
3R8
117   119    1
SMALL
USER_CHARGES


@<TRIPOS>ATOM
      1 CA         14.5769  -26.0516  -41.1068 C.3       0 UNK        -0.2013 
      2 C          15.6777  -26.5544  -42.0284 C.2       0 UNK         0.4866 
      3 O          15.3915  -27.2577  -42.9979 O.2       0 UNK        -0.5176 
      4 N          16.9356  -26.2057  -41.7318 N.am      1 UNK        -0.4884 
      5 CA         18.1123  -26.5713  -42.5229 C.3       1 UNK         0.0853 
      6 C6         19.4265  -26.4238  -41.7153 C.3       10 UNK        -0.0849 
      7 S7         19.5228  -27.6398  -40.3633 S.3       10 UNK        -0.2776 
      8 C8         20.7497  -28.8125  -41.0261 C.3       10 UNK         0.0316 
      9 C9         20.3059  -29.4805  -42.3237 C.ar      10 UNK        -0.0863 
     10 C10        19.1150  -30.2098  -42.3708 C.ar      10 UNK        -0.1009 
     11 C11        18.7403  -30.8822  -43.5368 C.ar      10 UNK        -0.0712 
     12 C12        19.5648  -30.8234  -44.6638 C.ar      10 UNK        -0.0894 
     13 C13        20.7707  -30.1186  -44.6255 C.ar      10 UNK        -0.0745 
     14 C14        21.1203  -29.4269  -43.4601 C.ar      10 UNK        -0.0972 
     15 C15        21.7335  -30.2042  -45.8059 C.3       10 UNK         0.0209 
     16 S16        21.4739  -28.9029  -47.0508 S.3       10 UNK        -0.2568 
     17 C17        22.3542  -27.5002  -46.2820 C.3       10 UNK        -0.0983 
     18 CA         21.6408  -26.1320  -46.4459 C.3       3 UNK         0.0876 
     19 N          20.1987  -26.2375  -46.2076 N.am      3 UNK        -0.4424 
     20 C          19.2552  -25.4464  -46.7329 C.2       2 UNK         0.4918 
     21 O          19.4866  -24.5236  -47.5134 O.2       2 UNK        -0.4875 
     22 CA         17.8083  -25.7138  -46.2733 C.3       2 UNK         0.0481 
     23 CB         17.0888  -26.6253  -47.2795 C.3       2 UNK        -0.1831 
     24 N          17.7236  -26.3094  -44.9331 N.am      2 UNK        -0.4498 
     25 C          18.1675  -25.7297  -43.8086 C.2       1 UNK         0.5027 
     26 O          18.6433  -24.5932  -43.7699 O.2       1 UNK        -0.4969 
     27 C          22.3162  -25.0848  -45.5283 C.2       3 UNK         0.5005 
     28 O          23.5368  -24.9371  -45.5938 O.2       3 UNK        -0.5279 
     29 N          21.5435  -24.4335  -44.6435 N.am      4 UNK        -0.4463 
     30 CA         21.9373  -23.5306  -43.5533 C.3       4 UNK         0.0283 
     31 CB         22.8172  -22.3602  -44.0351 C.3       4 UNK        -0.1875 
     32 C          22.5625  -24.2524  -42.3463 C.2       4 UNK         0.4949 
     33 O          22.2319  -23.9006  -41.2140 O.2       4 UNK        -0.5039 
     34 N          23.4167  -25.2548  -42.5839 N.am      5 UNK        -0.4663 
     35 CA         24.0398  -26.0856  -41.5551 C.3       5 UNK         0.0242 
     36 CB         25.2442  -25.3485  -40.9395 C.3       5 UNK        -0.1982 
     37 C          24.4766  -27.4281  -42.1543 C.2       5 UNK         0.5017 
     38 O          24.7935  -27.4907  -43.3435 O.2       5 UNK        -0.5012 
     39 N          24.5093  -28.4569  -41.3009 N.am      6 UNK        -0.4439 
     40 CA         24.9971  -29.8198  -41.5170 C.3       6 UNK         0.0297 
     41 CB         24.2259  -30.5554  -42.6329 C.3       6 UNK        -0.2006 
     42 C          24.8414  -30.5641  -40.1826 C.2       6 UNK         0.4892 
     43 O          24.2851  -30.0049  -39.2311 O.2       6 UNK        -0.5089 
     44 N          25.2949  -31.8225  -40.1375 N.am      7 UNK        -0.4243 
     45 CA         25.2026  -32.7210  -38.9814 C.3       7 UNK         0.0196 
     46 CB         26.2611  -33.8305  -39.1336 C.3       7 UNK        -0.2007 
     47 C          23.7787  -33.2826  -38.7655 C.2       7 UNK         0.5020 
     48 O          23.5974  -34.5003  -38.7371 O.2       7 UNK        -0.5147 
     49 N          22.8030  -32.3772  -38.6029 N.am      8 UNK        -0.4734 
     50 CA         21.3810  -32.6216  -38.3233 C.3       8 UNK         0.0238 
     51 CB         21.2035  -33.2205  -36.9109 C.3       8 UNK        -0.1912 
     52 C          20.6730  -33.4452  -39.4188 C.2       8 UNK         0.5038 
     53 O          20.0126  -34.4405  -39.1127 O.2       8 UNK        -0.5046 
     54 N          20.8074  -32.9936  -40.6733 N.am      9 UNK        -0.4200 
     55 CA         20.2244  -33.6114  -41.8762 C.3       9 UNK         0.0839 
     56 C          20.8898  -34.9722  -42.2477 C.2       9 UNK         0.5513 
     57 N          20.2378  -35.8027  -43.0498 N.am      9 UNK        -0.7519 
     58 O          22.0200  -35.2629  -41.8620 O.2       9 UNK        -0.4960 
     59 C59        18.6622  -33.6390  -41.8238 C.3       10 UNK        -0.0876 
     60 S60        17.8725  -33.5065  -43.4673 S.3       10 UNK        -0.2414 
     61 C61        17.4783  -31.7293  -43.5601 C.3       10 UNK         0.0169 
     62 H62        14.9725  -25.4508  -40.2880 H         1 UNK         0.0903 
     63 H63        13.8701  -25.4393  -41.6662 H         1 UNK         0.0903 
     64 H64        14.0337  -26.8933  -40.6779 H         1 UNK         0.0903 
     65 H65        17.1158  -25.6230  -40.9264 H         1 UNK         0.3096 
     66 H66        18.0170  -27.6196  -42.8145 H         1 UNK         0.1121 
     67 H67        20.2981  -26.5454  -42.3618 H         1 UNK         0.0849 
     68 H68        19.5116  -25.4225  -41.2881 H         1 UNK         0.0849 
     69 H69        20.9379  -29.5839  -40.2785 H         1 UNK         0.0865 
     70 H70        21.6934  -28.2861  -41.1629 H         1 UNK         0.0865 
     71 H71        18.4917  -30.2714  -41.4891 H         1 UNK         0.1346 
     72 H72        19.2914  -31.3737  -45.5539 H         1 UNK         0.1412 
     73 H73        22.0575  -28.8925  -43.4152 H         1 UNK         0.1426 
     74 H74        21.6183  -31.1720  -46.2964 H         1 UNK         0.0716 
     75 H75        22.7667  -30.1744  -45.4585 H         1 UNK         0.0716 
     76 H76        23.3527  -27.4548  -46.7209 H         1 UNK         0.0695 
     77 H77        22.5125  -27.7184  -45.2267 H         1 UNK         0.0695 
     78 H78        21.7927  -25.7967  -47.4742 H         1 UNK         0.0983 
     79 H79        19.9072  -27.0026  -45.6176 H         1 UNK         0.3095 
     80 H80        17.2877  -24.7545  -46.2447 H         1 UNK         0.0454 
     81 H81        17.5548  -27.6099  -47.3391 H         1 UNK         0.0851 
     82 H82        17.1106  -26.1940  -48.2814 H         1 UNK         0.0851 
     83 H83        16.0411  -26.7641  -47.0121 H         1 UNK         0.0851 
     84 H84        17.2906  -27.2210  -44.8675 H         1 UNK         0.2976 
     85 H85        20.5492  -24.6318  -44.6632 H         1 UNK         0.3116 
     86 H86        21.0005  -23.0974  -43.1987 H         1 UNK         0.0646 
     87 H87        22.9543  -21.6290  -43.2374 H         1 UNK         0.0847 
     88 H88        22.3613  -21.8398  -44.8771 H         1 UNK         0.0847 
     89 H89        23.8111  -22.6888  -44.3393 H         1 UNK         0.0847 
     90 H90        23.6590  -25.4864  -43.5434 H         1 UNK         0.3040 
     91 H91        23.3024  -26.2839  -40.7735 H         1 UNK         0.1015 
     92 H92        24.9405  -24.4192  -40.4573 H         1 UNK         0.0786 
     93 H93        25.9924  -25.1041  -41.6947 H         1 UNK         0.0786 
     94 H94        25.7336  -25.9592  -40.1795 H         1 UNK         0.0786 
     95 H95        24.2420  -28.3106  -40.3325 H         1 UNK         0.3172 
     96 H96        26.0575  -29.7684  -41.7702 H         1 UNK         0.0595 
     97 H97        23.1938  -30.7511  -42.3452 H         1 UNK         0.0839 
     98 H98        24.6810  -31.5215  -42.8526 H         1 UNK         0.0839 
     99 H99        24.2258  -29.9993  -43.5686 H         1 UNK         0.0839 
    100 H100       25.7095  -32.2145  -40.9709 H         1 UNK         0.2998 
    101 H101       25.4541  -32.1515  -38.0838 H         1 UNK         0.0822 
    102 H102       27.2647  -33.4134  -39.2192 H         1 UNK         0.0787 
    103 H103       26.2621  -34.4923  -38.2663 H         1 UNK         0.0787 
    104 H104       26.0762  -34.4468  -40.0144 H         1 UNK         0.0787 
    105 H105       23.0854  -31.4017  -38.6666 H         1 UNK         0.3055 
    106 H106       20.8940  -31.6448  -38.3222 H         1 UNK         0.1106 
    107 H107       20.1472  -33.3052  -36.6522 H         1 UNK         0.0828 
    108 H108       21.6364  -34.2186  -36.8355 H         1 UNK         0.0828 
    109 H109       21.6716  -32.5938  -36.1520 H         1 UNK         0.0828 
    110 H110       21.4075  -32.2004  -40.8379 H         1 UNK         0.2931 
    111 H111       20.5214  -32.9365  -42.6791 H         1 UNK         0.0412 
    112 H112       19.3265  -35.5524  -43.4049 H         1 UNK         0.3472 
    113 H113       20.6650  -36.6764  -43.3152 H         1 UNK         0.3472 
    114 H114       18.2889  -32.8196  -41.2084 H         1 UNK         0.0970 
    115 H115       18.3077  -34.5461  -41.3309 H         1 UNK         0.0970 
    116 H116       16.8111  -31.4601  -42.7397 H         1 UNK         0.0612 
    117 H117       16.9274  -31.5353  -44.4814 H         1 UNK         0.0612 
@<TRIPOS>BOND
     1    1    2 1    
     2    1   62 1    
     3    1   63 1    
     4    1   64 1    
     5    2    3 2    
     6    2    4 am   BACKBONE|DICT|INTERRES
     7    4    5 1    
     8    4   65 1    
     9    5    6 1    
    10    5   25 1    
    11    5   66 1    
    12    6    7 1    
    13    6   67 1    
    14    6   68 1    
    15    7    8 1    
    16    8    9 1    
    17    8   69 1    
    18    8   70 1    
    19    9   10 ar   
    20    9   14 ar   
    21   10   11 ar   
    22   10   71 1    
    23   11   12 ar   
    24   11   61 1    
    25   12   13 ar   
    26   12   72 1    
    27   13   14 ar   
    28   13   15 1    
    29   14   73 1    
    30   15   16 1    
    31   15   74 1    
    32   15   75 1    
    33   16   17 1    
    34   17   18 1    
    35   17   76 1    
    36   17   77 1    
    37   18   19 1    
    38   18   27 1    
    39   18   78 1    
    40   19   20 am   BACKBONE|DICT|INTERRES
    41   19   79 1    
    42   20   21 2    
    43   20   22 1    
    44   22   23 1    
    45   22   24 1    
    46   22   80 1    
    47   23   81 1    
    48   23   82 1    
    49   23   83 1    
    50   24   25 am   BACKBONE|DICT|INTERRES
    51   24   84 1    
    52   25   26 2    
    53   27   28 2    
    54   27   29 am   BACKBONE|DICT|INTERRES
    55   29   30 1    
    56   29   85 1    
    57   30   31 1    
    58   30   32 1    
    59   30   86 1    
    60   31   87 1    
    61   31   88 1    
    62   31   89 1    
    63   32   33 2    
    64   32   34 am   BACKBONE|DICT|INTERRES
    65   34   35 1    
    66   34   90 1    
    67   35   36 1    
    68   35   37 1    
    69   35   91 1    
    70   36   92 1    
    71   36   93 1    
    72   36   94 1    
    73   37   38 2    
    74   37   39 am   BACKBONE|DICT|INTERRES
    75   39   40 1    
    76   39   95 1    
    77   40   41 1    
    78   40   42 1    
    79   40   96 1    
    80   41   97 1    
    81   41   98 1    
    82   41   99 1    
    83   42   43 2    
    84   42   44 am   BACKBONE|DICT|INTERRES
    85   44   45 1    
    86   44  100 1    
    87   45   46 1    
    88   45   47 1    
    89   45  101 1    
    90   46  102 1    
    91   46  103 1    
    92   46  104 1    
    93   47   48 2    
    94   47   49 am   BACKBONE|DICT|INTERRES
    95   49   50 1    
    96   49  105 1    
    97   50   51 1    
    98   50   52 1    
    99   50  106 1    
   100   51  107 1    
   101   51  108 1    
   102   51  109 1    
   103   52   53 2    
   104   52   54 am   BACKBONE|DICT|INTERRES
   105   54   55 1    
   106   54  110 1    
   107   55   56 1    
   108   55   59 1    
   109   55  111 1    
   110   56   57 am   BACKBONE|DICT|INTERRES
   111   56   58 2    
   112   57  112 1    
   113   57  113 1    
   114   59   60 1    
   115   59  114 1    
   116   59  115 1    
   117   60   61 1    
   118   61  116 1    
   119   61  117 1    
@<TRIPOS>SUBSTRUCTURE
     1 UNK         1 GROUP             0       ****    0 ROOT    
