@<TRIPOS>MOLECULE
3R8
117   119    1
SMALL
USER_CHARGES


@<TRIPOS>ATOM
      1 CA         20.8288  -26.2341  -48.8728 C.3       0 UNK        -0.2013 
      2 C          20.4415  -26.6820  -47.4720 C.2       0 UNK         0.4866 
      3 O          21.3013  -27.1238  -46.7106 O.2       0 UNK        -0.5176 
      4 N          19.1567  -26.5568  -47.1172 N.am      1 UNK        -0.4884 
      5 CA         18.5544  -26.9583  -45.8359 C.3       1 UNK         0.0853 
      6 C6         17.0254  -27.1724  -45.9926 C.3       10 UNK        -0.0849 
      7 S7         16.6395  -28.5755  -47.0985 S.3       10 UNK        -0.2776 
      8 C8         15.6994  -29.6938  -46.0062 C.3       10 UNK         0.0316 
      9 C9         16.5752  -30.3342  -44.9371 C.ar      10 UNK        -0.0863 
     10 C10        17.2858  -31.5063  -45.2136 C.ar      10 UNK        -0.1009 
     11 C11        18.0669  -32.1093  -44.2233 C.ar      10 UNK        -0.0712 
     12 C12        18.1582  -31.5139  -42.9616 C.ar      10 UNK        -0.0894 
     13 C13        17.4669  -30.3345  -42.6716 C.ar      10 UNK        -0.0745 
     14 C14        16.6536  -29.7685  -43.6610 C.ar      10 UNK        -0.0972 
     15 C15        17.6061  -29.7164  -41.2798 C.3       10 UNK         0.0209 
     16 S16        17.4013  -27.9019  -41.2506 S.3       10 UNK        -0.2568 
     17 C17        18.5420  -27.4178  -39.9148 C.3       10 UNK        -0.0983 
     18 CA         19.9677  -27.1412  -40.4491 C.3       3 UNK         0.0876 
     19 N          19.9734  -26.1501  -41.5306 N.am      3 UNK        -0.4424 
     20 C          21.0417  -25.7655  -42.2378 C.2       2 UNK         0.4918 
     21 O          22.1892  -26.1632  -42.0249 O.2       2 UNK        -0.4875 
     22 CA         20.7563  -24.8612  -43.4461 C.3       2 UNK         0.0481 
     23 CB         22.0204  -24.1553  -43.9674 C.3       2 UNK        -0.1831 
     24 N          20.1952  -25.6752  -44.5229 N.am      2 UNK        -0.4498 
     25 C          18.9017  -25.9763  -44.6885 C.2       1 UNK         0.5027 
     26 O          18.0112  -25.5077  -43.9768 O.2       1 UNK        -0.4969 
     27 C          20.9182  -26.7529  -39.3022 C.2       3 UNK         0.5005 
     28 O          20.8675  -25.6148  -38.8304 O.2       3 UNK        -0.5279 
     29 N          21.7871  -27.6940  -38.9078 N.am      4 UNK        -0.4463 
     30 CA         22.8514  -27.6080  -37.8970 C.3       4 UNK         0.0283 
     31 CB         22.3081  -27.1947  -36.5151 C.3       4 UNK        -0.1875 
     32 C          24.0499  -26.7358  -38.3136 C.2       4 UNK         0.4949 
     33 O          25.1759  -27.0506  -37.9284 O.2       4 UNK        -0.5039 
     34 N          23.8081  -25.6806  -39.1018 N.am      5 UNK        -0.4663 
     35 CA         24.8324  -24.8179  -39.6926 C.3       5 UNK         0.0242 
     36 CB         24.1670  -23.5568  -40.2651 C.3       5 UNK        -0.1982 
     37 C          25.6604  -25.5373  -40.7710 C.2       5 UNK         0.5017 
     38 O          26.8692  -25.3132  -40.8478 O.2       5 UNK        -0.5012 
     39 N          25.0042  -26.3930  -41.5651 N.am      6 UNK        -0.4439 
     40 CA         25.6303  -27.2239  -42.5930 C.3       6 UNK         0.0297 
     41 CB         25.7571  -26.4432  -43.9133 C.3       6 UNK        -0.2006 
     42 C          24.8792  -28.5455  -42.8046 C.2       6 UNK         0.4892 
     43 O          25.5300  -29.5842  -42.9264 O.2       6 UNK        -0.5089 
     44 N          23.5406  -28.4985  -42.8597 N.am      7 UNK        -0.4243 
     45 CA         22.6935  -29.6732  -43.0689 C.3       7 UNK         0.0196 
     46 CB         21.3610  -29.2491  -43.7090 C.3       7 UNK        -0.2007 
     47 C          22.4471  -30.4218  -41.7529 C.2       7 UNK         0.5020 
     48 O          22.2905  -29.7961  -40.7019 O.2       7 UNK        -0.5147 
     49 N          22.3661  -31.7488  -41.8534 N.am      8 UNK        -0.4734 
     50 CA         22.0027  -32.6604  -40.7724 C.3       8 UNK         0.0238 
     51 CB         23.2496  -33.1215  -39.9951 C.3       8 UNK        -0.1912 
     52 C          21.2226  -33.8160  -41.4001 C.2       8 UNK         0.5038 
     53 O          20.0299  -33.9384  -41.1293 O.2       8 UNK        -0.5046 
     54 N          21.9043  -34.5615  -42.2860 N.am      9 UNK        -0.4200 
     55 CA         21.4201  -35.5052  -43.3201 C.3       9 UNK         0.0839 
     56 C          20.3187  -36.5599  -42.9785 C.2       9 UNK         0.5513 
     57 N          19.7399  -36.5853  -41.7895 N.am      9 UNK        -0.7519 
     58 O          20.0185  -37.4165  -43.8064 O.2       9 UNK        -0.4960 
     59 C59        21.2216  -34.8339  -44.7214 C.3       10 UNK        -0.0876 
     60 S60        20.5766  -33.1234  -44.7331 S.3       10 UNK        -0.2414 
     61 C61        18.8005  -33.4126  -44.4990 C.3       10 UNK         0.0169 
     62 H62        19.9709  -25.8685  -49.4368 H         1 UNK         0.0903 
     63 H63        21.5666  -25.4340  -48.8197 H         1 UNK         0.0903 
     64 H64        21.2670  -27.0659  -49.4235 H         1 UNK         0.0903 
     65 H65        18.5051  -26.1734  -47.7874 H         1 UNK         0.3096 
     66 H66        18.9892  -27.9172  -45.5422 H         1 UNK         0.1121 
     67 H67        16.5515  -27.3411  -45.0263 H         1 UNK         0.0849 
     68 H68        16.5535  -26.2736  -46.3935 H         1 UNK         0.0849 
     69 H69        14.8716  -29.1483  -45.5499 H         1 UNK         0.0865 
     70 H70        15.2416  -30.4741  -46.6162 H         1 UNK         0.0865 
     71 H71        17.2199  -31.9551  -46.1955 H         1 UNK         0.1346 
     72 H72        18.7727  -31.9751  -42.2016 H         1 UNK         0.1412 
     73 H73        16.0808  -28.8793  -43.4415 H         1 UNK         0.1426 
     74 H74        18.5891  -29.9658  -40.8769 H         1 UNK         0.0716 
     75 H75        16.8713  -30.1677  -40.6122 H         1 UNK         0.0716 
     76 H76        18.5536  -28.1992  -39.1522 H         1 UNK         0.0695 
     77 H77        18.1354  -26.5265  -39.4328 H         1 UNK         0.0695 
     78 H78        20.3355  -28.0702  -40.8841 H         1 UNK         0.0983 
     79 H79        19.0646  -25.8087  -41.8141 H         1 UNK         0.3095 
     80 H80        20.0412  -24.0938  -43.1429 H         1 UNK         0.0454 
     81 H81        22.7731  -24.8667  -44.3063 H         1 UNK         0.0851 
     82 H82        22.4748  -23.5407  -43.1907 H         1 UNK         0.0851 
     83 H83        21.7869  -23.4964  -44.8036 H         1 UNK         0.0851 
     84 H84        20.8544  -26.1231  -45.1553 H         1 UNK         0.2976 
     85 H85        21.8205  -28.5536  -39.4583 H         1 UNK         0.3116 
     86 H86        23.2339  -28.6258  -37.8035 H         1 UNK         0.0646 
     87 H87        21.9503  -26.1649  -36.5052 H         1 UNK         0.0847 
     88 H88        23.0878  -27.2695  -35.7561 H         1 UNK         0.0847 
     89 H89        21.4876  -27.8396  -36.2013 H         1 UNK         0.0847 
     90 H90        22.8393  -25.4753  -39.3220 H         1 UNK         0.3040 
     91 H91        25.5191  -24.5139  -38.8994 H         1 UNK         0.1015 
     92 H92        23.4299  -23.8030  -41.0289 H         1 UNK         0.0786 
     93 H93        24.9057  -22.8970  -40.7221 H         1 UNK         0.0786 
     94 H94        23.6620  -22.9871  -39.4848 H         1 UNK         0.0786 
     95 H95        23.9975  -26.4750  -41.4538 H         1 UNK         0.3172 
     96 H96        26.6356  -27.4896  -42.2582 H         1 UNK         0.0595 
     97 H97        24.7831  -26.1402  -44.2968 H         1 UNK         0.0839 
     98 H98        26.2349  -27.0524  -44.6818 H         1 UNK         0.0839 
     99 H99        26.3631  -25.5457  -43.7892 H         1 UNK         0.0839 
    100 H100       23.0602  -27.6181  -42.6977 H         1 UNK         0.2998 
    101 H101       23.1970  -30.3459  -43.7672 H         1 UNK         0.0822 
    102 H102       20.7890  -28.5794  -43.0706 H         1 UNK         0.0787 
    103 H103       21.5269  -28.7452  -44.6598 H         1 UNK         0.0787 
    104 H104       20.7299  -30.1152  -43.9116 H         1 UNK         0.0787 
    105 H105       22.4259  -32.1651  -42.7736 H         1 UNK         0.3055 
    106 H106       21.3287  -32.1522  -40.0781 H         1 UNK         0.1106 
    107 H107       22.9858  -33.8591  -39.2362 H         1 UNK         0.0828 
    108 H108       24.0013  -33.5701  -40.6448 H         1 UNK         0.0828 
    109 H109       23.7186  -32.2829  -39.4800 H         1 UNK         0.0828 
    110 H110       22.8964  -34.3864  -42.3416 H         1 UNK         0.2931 
    111 H111       22.2887  -36.1537  -43.4443 H         1 UNK         0.0412 
    112 H112       19.0467  -37.2862  -41.5810 H         1 UNK         0.3472 
    113 H113       19.8772  -35.7930  -41.1707 H         1 UNK         0.3472 
    114 H114       22.1931  -34.7852  -45.2154 H         1 UNK         0.0970 
    115 H115       20.6104  -35.4441  -45.3890 H         1 UNK         0.0970 
    116 H116       18.3952  -33.9097  -45.3816 H         1 UNK         0.0612 
    117 H117       18.6491  -34.0929  -43.6598 H         1 UNK         0.0612 
@<TRIPOS>BOND
     1    1    2 1    
     2    1   62 1    
     3    1   63 1    
     4    1   64 1    
     5    2    3 2    
     6    2    4 am   BACKBONE|DICT|INTERRES
     7    4    5 1    
     8    4   65 1    
     9    5    6 1    
    10    5   25 1    
    11    5   66 1    
    12    6    7 1    
    13    6   67 1    
    14    6   68 1    
    15    7    8 1    
    16    8    9 1    
    17    8   69 1    
    18    8   70 1    
    19    9   10 ar   
    20    9   14 ar   
    21   10   11 ar   
    22   10   71 1    
    23   11   12 ar   
    24   11   61 1    
    25   12   13 ar   
    26   12   72 1    
    27   13   14 ar   
    28   13   15 1    
    29   14   73 1    
    30   15   16 1    
    31   15   74 1    
    32   15   75 1    
    33   16   17 1    
    34   17   18 1    
    35   17   76 1    
    36   17   77 1    
    37   18   19 1    
    38   18   27 1    
    39   18   78 1    
    40   19   20 am   BACKBONE|DICT|INTERRES
    41   19   79 1    
    42   20   21 2    
    43   20   22 1    
    44   22   23 1    
    45   22   24 1    
    46   22   80 1    
    47   23   81 1    
    48   23   82 1    
    49   23   83 1    
    50   24   25 am   BACKBONE|DICT|INTERRES
    51   24   84 1    
    52   25   26 2    
    53   27   28 2    
    54   27   29 am   BACKBONE|DICT|INTERRES
    55   29   30 1    
    56   29   85 1    
    57   30   31 1    
    58   30   32 1    
    59   30   86 1    
    60   31   87 1    
    61   31   88 1    
    62   31   89 1    
    63   32   33 2    
    64   32   34 am   BACKBONE|DICT|INTERRES
    65   34   35 1    
    66   34   90 1    
    67   35   36 1    
    68   35   37 1    
    69   35   91 1    
    70   36   92 1    
    71   36   93 1    
    72   36   94 1    
    73   37   38 2    
    74   37   39 am   BACKBONE|DICT|INTERRES
    75   39   40 1    
    76   39   95 1    
    77   40   41 1    
    78   40   42 1    
    79   40   96 1    
    80   41   97 1    
    81   41   98 1    
    82   41   99 1    
    83   42   43 2    
    84   42   44 am   BACKBONE|DICT|INTERRES
    85   44   45 1    
    86   44  100 1    
    87   45   46 1    
    88   45   47 1    
    89   45  101 1    
    90   46  102 1    
    91   46  103 1    
    92   46  104 1    
    93   47   48 2    
    94   47   49 am   BACKBONE|DICT|INTERRES
    95   49   50 1    
    96   49  105 1    
    97   50   51 1    
    98   50   52 1    
    99   50  106 1    
   100   51  107 1    
   101   51  108 1    
   102   51  109 1    
   103   52   53 2    
   104   52   54 am   BACKBONE|DICT|INTERRES
   105   54   55 1    
   106   54  110 1    
   107   55   56 1    
   108   55   59 1    
   109   55  111 1    
   110   56   57 am   BACKBONE|DICT|INTERRES
   111   56   58 2    
   112   57  112 1    
   113   57  113 1    
   114   59   60 1    
   115   59  114 1    
   116   59  115 1    
   117   60   61 1    
   118   61  116 1    
   119   61  117 1    
@<TRIPOS>SUBSTRUCTURE
     1 UNK         1 GROUP             0       ****    0 ROOT    
