@<TRIPOS>MOLECULE
3R8
117   119    1
SMALL
USER_CHARGES


@<TRIPOS>ATOM
      1 CA         16.1347  -23.3771  -42.2674 C.3       0 UNK        -0.2013 
      2 C          16.5596  -23.7766  -43.6722 C.2       0 UNK         0.4866 
      3 O          16.5209  -22.9503  -44.5837 O.2       0 UNK        -0.5176 
      4 N          16.9738  -25.0372  -43.8542 N.am      1 UNK        -0.4884 
      5 CA         17.3704  -25.6149  -45.1480 C.3       1 UNK         0.0853 
      6 C6         17.2643  -27.1612  -45.1551 C.3       10 UNK        -0.0849 
      7 S7         15.7175  -27.8472  -44.4633 S.3       10 UNK        -0.2776 
      8 C8         15.7705  -29.5710  -45.0683 C.3       10 UNK         0.0316 
      9 C9         17.0599  -30.2787  -44.6709 C.ar      10 UNK        -0.0863 
     10 C10        17.1586  -30.9697  -43.4596 C.ar      10 UNK        -0.1009 
     11 C11        18.3639  -31.5751  -43.0873 C.ar      10 UNK        -0.0712 
     12 C12        19.4834  -31.4530  -43.9186 C.ar      10 UNK        -0.0894 
     13 C13        19.3926  -30.7787  -45.1407 C.ar      10 UNK        -0.0745 
     14 C14        18.1661  -30.2284  -45.5219 C.ar      10 UNK        -0.0972 
     15 C15        20.6073  -30.6739  -46.0583 C.3       10 UNK         0.0209 
     16 S16        20.8026  -29.0075  -46.7885 S.3       10 UNK        -0.2568 
     17 C17        22.4700  -28.5149  -46.2343 C.3       10 UNK        -0.0983 
     18 CA         22.4871  -27.5595  -45.0166 C.3       3 UNK         0.0876 
     19 N          21.7230  -26.3283  -45.2575 N.am      3 UNK        -0.4424 
     20 C          21.9463  -25.1645  -44.6330 C.2       2 UNK         0.4918 
     21 O          22.8959  -24.9733  -43.8739 O.2       2 UNK        -0.4875 
     22 CA         20.9268  -24.0310  -44.8480 C.3       2 UNK         0.0481 
     23 CB         21.2061  -23.2555  -46.1504 C.3       2 UNK        -0.1831 
     24 N          19.5252  -24.4654  -44.7388 N.am      2 UNK        -0.4498 
     25 C          18.7965  -25.2040  -45.5903 C.2       1 UNK         0.5027 
     26 O          19.2338  -25.6215  -46.6628 O.2       1 UNK        -0.4969 
     27 C          22.0625  -28.2693  -43.7111 C.2       3 UNK         0.5005 
     28 O          22.8316  -29.0787  -43.1859 O.2       3 UNK        -0.5279 
     29 N          20.8666  -27.9445  -43.1981 N.am      4 UNK        -0.4463 
     30 CA         20.3631  -28.3911  -41.9014 C.3       4 UNK         0.0283 
     31 CB         18.8940  -27.9698  -41.7392 C.3       4 UNK        -0.1875 
     32 C          21.2185  -27.8173  -40.7639 C.2       4 UNK         0.4949 
     33 O          21.4460  -26.6066  -40.7303 O.2       4 UNK        -0.5039 
     34 N          21.6846  -28.7058  -39.8798 N.am      5 UNK        -0.4663 
     35 CA         22.6346  -28.4656  -38.7887 C.3       5 UNK         0.0242 
     36 CB         22.0944  -27.4388  -37.7703 C.3       5 UNK        -0.1982 
     37 C          24.0623  -28.1504  -39.2777 C.2       5 UNK         0.5017 
     38 O          24.8484  -27.5821  -38.5176 O.2       5 UNK        -0.5012 
     39 N          24.3843  -28.5500  -40.5156 N.am      6 UNK        -0.4439 
     40 CA         25.7136  -28.4468  -41.1144 C.3       6 UNK         0.0297 
     41 CB         25.7540  -27.2877  -42.1260 C.3       6 UNK        -0.2006 
     42 C          26.1087  -29.7827  -41.7553 C.2       6 UNK         0.4892 
     43 O          27.1258  -30.3574  -41.3658 O.2       6 UNK        -0.5089 
     44 N          25.3000  -30.2614  -42.7104 N.am      7 UNK        -0.4243 
     45 CA         25.5108  -31.5328  -43.4071 C.3       7 UNK         0.0196 
     46 CB         24.9356  -31.4323  -44.8287 C.3       7 UNK        -0.2007 
     47 C          24.8687  -32.7112  -42.6602 C.2       7 UNK         0.5020 
     48 O          25.4278  -33.8081  -42.6645 O.2       7 UNK        -0.5147 
     49 N          23.7105  -32.4683  -42.0383 N.am      8 UNK        -0.4734 
     50 CA         22.9235  -33.4296  -41.2698 C.3       8 UNK         0.0238 
     51 CB         22.1574  -34.3692  -42.2236 C.3       8 UNK        -0.1912 
     52 C          21.9720  -32.6546  -40.3481 C.2       8 UNK         0.5038 
     53 O          21.9041  -31.4275  -40.4512 O.2       8 UNK        -0.5046 
     54 N          21.2650  -33.3864  -39.4750 N.am      9 UNK        -0.4200 
     55 CA         20.2834  -32.9008  -38.4835 C.3       9 UNK         0.0839 
     56 C          20.7868  -31.8046  -37.4959 C.2       9 UNK         0.5513 
     57 N          22.0732  -31.7798  -37.1687 N.am      9 UNK        -0.7519 
     58 O          20.0106  -31.0026  -36.9833 O.2       9 UNK        -0.4960 
     59 C59        18.8529  -32.6674  -39.0600 C.3       10 UNK        -0.0876 
     60 S60        18.6838  -31.3671  -40.3322 S.3       10 UNK        -0.2414 
     61 C61        18.4438  -32.3973  -41.8100 C.3       10 UNK         0.0169 
     62 H62        16.7489  -22.5513  -41.9094 H         1 UNK         0.0903 
     63 H63        15.0946  -23.0520  -42.2692 H         1 UNK         0.0903 
     64 H64        16.2303  -24.2020  -41.5615 H         1 UNK         0.0903 
     65 H65        16.9448  -25.6865  -43.0807 H         1 UNK         0.3096 
     66 H66        16.6870  -25.2323  -45.9097 H         1 UNK         0.1121 
     67 H67        18.0958  -27.5991  -44.6020 H         1 UNK         0.0849 
     68 H68        17.3602  -27.5204  -46.1813 H         1 UNK         0.0849 
     69 H69        14.9107  -30.1131  -44.6718 H         1 UNK         0.0865 
     70 H70        15.6561  -29.5755  -46.1535 H         1 UNK         0.0865 
     71 H71        16.3001  -31.0361  -42.8052 H         1 UNK         0.1346 
     72 H72        20.4224  -31.8963  -43.6201 H         1 UNK         0.1412 
     73 H73        18.0830  -29.7223  -46.4735 H         1 UNK         0.1426 
     74 H74        20.4980  -31.3982  -46.8663 H         1 UNK         0.0716 
     75 H75        21.5102  -30.9544  -45.5154 H         1 UNK         0.0716 
     76 H76        22.9501  -28.0164  -47.0777 H         1 UNK         0.0695 
     77 H77        23.0816  -29.3974  -46.0462 H         1 UNK         0.0695 
     78 H78        23.5302  -27.2726  -44.8676 H         1 UNK         0.0983 
     79 H79        20.9397  -26.3918  -45.9007 H         1 UNK         0.3095 
     80 H80        21.0680  -23.3286  -44.0249 H         1 UNK         0.0454 
     81 H81        21.1464  -23.8923  -47.0331 H         1 UNK         0.0851 
     82 H82        22.2081  -22.8249  -46.1349 H         1 UNK         0.0851 
     83 H83        20.5028  -22.4333  -46.2811 H         1 UNK         0.0851 
     84 H84        19.0634  -24.1971  -43.8808 H         1 UNK         0.2976 
     85 H85        20.3248  -27.2466  -43.6805 H         1 UNK         0.3116 
     86 H86        20.4175  -29.4812  -41.8788 H         1 UNK         0.0646 
     87 H87        18.2562  -28.4752  -42.4627 H         1 UNK         0.0847 
     88 H88        18.7634  -26.8936  -41.8545 H         1 UNK         0.0847 
     89 H89        18.5214  -28.2389  -40.7500 H         1 UNK         0.0847 
     90 H90        21.4861  -29.6924  -40.0504 H         1 UNK         0.3040 
     91 H91        22.7214  -29.4178  -38.2679 H         1 UNK         0.1015 
     92 H92        22.0662  -26.4302  -38.1829 H         1 UNK         0.0786 
     93 H93        22.7230  -27.4050  -36.8798 H         1 UNK         0.0786 
     94 H94        21.0875  -27.6992  -37.4435 H         1 UNK         0.0786 
     95 H95        23.6664  -28.9942  -41.0754 H         1 UNK         0.3172 
     96 H96        26.4557  -28.2385  -40.3407 H         1 UNK         0.0595 
     97 H97        25.0157  -27.4070  -42.9179 H         1 UNK         0.0839 
     98 H98        26.7340  -27.2163  -42.5994 H         1 UNK         0.0839 
     99 H99        25.5597  -26.3332  -41.6366 H         1 UNK         0.0839 
    100 H100       24.4563  -29.7445  -42.9565 H         1 UNK         0.2998 
    101 H101       26.5824  -31.7281  -43.4892 H         1 UNK         0.0822 
    102 H102       25.3827  -30.6062  -45.3819 H         1 UNK         0.0787 
    103 H103       25.1305  -32.3453  -45.3929 H         1 UNK         0.0787 
    104 H104       23.8557  -31.2841  -44.8131 H         1 UNK         0.0787 
    105 H105       23.3276  -31.5301  -42.0359 H         1 UNK         0.3055 
    106 H106       23.5975  -34.0144  -40.6399 H         1 UNK         0.1106 
    107 H107       21.4923  -33.8172  -42.8864 H         1 UNK         0.0828 
    108 H108       21.5489  -35.0891  -41.6756 H         1 UNK         0.0828 
    109 H109       22.8411  -34.9447  -42.8478 H         1 UNK         0.0828 
    110 H110       21.4181  -34.3841  -39.4615 H         1 UNK         0.2931 
    111 H111       20.1664  -33.7591  -37.8205 H         1 UNK         0.0412 
    112 H112       22.3975  -31.1002  -36.4995 H         1 UNK         0.3472 
    113 H113       22.7151  -32.4498  -37.5607 H         1 UNK         0.3472 
    114 H114       18.4806  -33.6085  -39.4665 H         1 UNK         0.0970 
    115 H115       18.1608  -32.4268  -38.2511 H         1 UNK         0.0970 
    116 H116       19.2588  -33.1189  -41.8788 H         1 UNK         0.0612 
    117 H117       17.5282  -32.9794  -41.6950 H         1 UNK         0.0612 
@<TRIPOS>BOND
     1    1    2 1    
     2    1   62 1    
     3    1   63 1    
     4    1   64 1    
     5    2    3 2    
     6    2    4 am   BACKBONE|DICT|INTERRES
     7    4    5 1    
     8    4   65 1    
     9    5    6 1    
    10    5   25 1    
    11    5   66 1    
    12    6    7 1    
    13    6   67 1    
    14    6   68 1    
    15    7    8 1    
    16    8    9 1    
    17    8   69 1    
    18    8   70 1    
    19    9   10 ar   
    20    9   14 ar   
    21   10   11 ar   
    22   10   71 1    
    23   11   12 ar   
    24   11   61 1    
    25   12   13 ar   
    26   12   72 1    
    27   13   14 ar   
    28   13   15 1    
    29   14   73 1    
    30   15   16 1    
    31   15   74 1    
    32   15   75 1    
    33   16   17 1    
    34   17   18 1    
    35   17   76 1    
    36   17   77 1    
    37   18   19 1    
    38   18   27 1    
    39   18   78 1    
    40   19   20 am   BACKBONE|DICT|INTERRES
    41   19   79 1    
    42   20   21 2    
    43   20   22 1    
    44   22   23 1    
    45   22   24 1    
    46   22   80 1    
    47   23   81 1    
    48   23   82 1    
    49   23   83 1    
    50   24   25 am   BACKBONE|DICT|INTERRES
    51   24   84 1    
    52   25   26 2    
    53   27   28 2    
    54   27   29 am   BACKBONE|DICT|INTERRES
    55   29   30 1    
    56   29   85 1    
    57   30   31 1    
    58   30   32 1    
    59   30   86 1    
    60   31   87 1    
    61   31   88 1    
    62   31   89 1    
    63   32   33 2    
    64   32   34 am   BACKBONE|DICT|INTERRES
    65   34   35 1    
    66   34   90 1    
    67   35   36 1    
    68   35   37 1    
    69   35   91 1    
    70   36   92 1    
    71   36   93 1    
    72   36   94 1    
    73   37   38 2    
    74   37   39 am   BACKBONE|DICT|INTERRES
    75   39   40 1    
    76   39   95 1    
    77   40   41 1    
    78   40   42 1    
    79   40   96 1    
    80   41   97 1    
    81   41   98 1    
    82   41   99 1    
    83   42   43 2    
    84   42   44 am   BACKBONE|DICT|INTERRES
    85   44   45 1    
    86   44  100 1    
    87   45   46 1    
    88   45   47 1    
    89   45  101 1    
    90   46  102 1    
    91   46  103 1    
    92   46  104 1    
    93   47   48 2    
    94   47   49 am   BACKBONE|DICT|INTERRES
    95   49   50 1    
    96   49  105 1    
    97   50   51 1    
    98   50   52 1    
    99   50  106 1    
   100   51  107 1    
   101   51  108 1    
   102   51  109 1    
   103   52   53 2    
   104   52   54 am   BACKBONE|DICT|INTERRES
   105   54   55 1    
   106   54  110 1    
   107   55   56 1    
   108   55   59 1    
   109   55  111 1    
   110   56   57 am   BACKBONE|DICT|INTERRES
   111   56   58 2    
   112   57  112 1    
   113   57  113 1    
   114   59   60 1    
   115   59  114 1    
   116   59  115 1    
   117   60   61 1    
   118   61  116 1    
   119   61  117 1    
@<TRIPOS>SUBSTRUCTURE
     1 UNK         1 GROUP             0       ****    0 ROOT    
