@<TRIPOS>MOLECULE
3R8
117   119    1
SMALL
USER_CHARGES


@<TRIPOS>ATOM
      1 CA         14.4021  -21.7873  -43.5513 C.3       0 UNK        -0.2013 
      2 C          15.1496  -22.5737  -44.6175 C.2       0 UNK         0.4866 
      3 O          15.3524  -22.0690  -45.7225 O.2       0 UNK        -0.5176 
      4 N          15.5519  -23.8095  -44.2992 N.am      1 UNK        -0.4884 
      5 CA         16.3499  -24.6859  -45.1617 C.3       1 UNK         0.0853 
      6 C6         16.2817  -26.1719  -44.7165 C.3       10 UNK        -0.0849 
      7 S7         16.4323  -26.4502  -42.9131 S.3       10 UNK        -0.2776 
      8 C8         15.7921  -28.1513  -42.7527 C.3       10 UNK         0.0316 
      9 C9         16.8906  -29.1753  -42.9939 C.ar      10 UNK        -0.0863 
     10 C10        17.5455  -29.7745  -41.9127 C.ar      10 UNK        -0.1009 
     11 C11        18.5948  -30.6721  -42.1294 C.ar      10 UNK        -0.0712 
     12 C12        18.9959  -30.9594  -43.4368 C.ar      10 UNK        -0.0894 
     13 C13        18.3562  -30.3577  -44.5242 C.ar      10 UNK        -0.0745 
     14 C14        17.2806  -29.4956  -44.2972 C.ar      10 UNK        -0.0972 
     15 C15        18.8726  -30.5804  -45.9395 C.3       10 UNK         0.0209 
     16 S16        19.5328  -29.0441  -46.6786 S.3       10 UNK        -0.2568 
     17 C17        20.6833  -28.4704  -45.3813 C.3       10 UNK        -0.0983 
     18 CA         21.4331  -27.1638  -45.7466 C.3       3 UNK         0.0876 
     19 N          20.5016  -26.0828  -46.0853 N.am      3 UNK        -0.4424 
     20 C          20.8438  -24.8856  -46.5780 C.2       2 UNK         0.4918 
     21 O          22.0055  -24.5619  -46.8311 O.2       2 UNK        -0.4875 
     22 CA         19.7111  -23.8838  -46.8767 C.3       2 UNK         0.0481 
     23 CB         19.6937  -23.5246  -48.3728 C.3       2 UNK        -0.1831 
     24 N          18.3765  -24.3631  -46.4979 N.am      2 UNK        -0.4498 
     25 C          17.8032  -24.1803  -45.3000 C.2       1 UNK         0.5027 
     26 O          18.3680  -23.6459  -44.3426 O.2       1 UNK        -0.4969 
     27 C          22.3611  -26.7715  -44.5773 C.2       3 UNK         0.5005 
     28 O          21.9686  -25.9826  -43.7116 O.2       3 UNK        -0.5279 
     29 N          23.5448  -27.3979  -44.5176 N.am      4 UNK        -0.4463 
     30 CA         24.4557  -27.3572  -43.3690 C.3       4 UNK         0.0283 
     31 CB         25.8685  -27.7630  -43.8282 C.3       4 UNK        -0.1875 
     32 C          23.9201  -28.2727  -42.2537 C.2       4 UNK         0.4949 
     33 O          24.4668  -29.3520  -42.0244 O.2       4 UNK        -0.5039 
     34 N          22.8100  -27.8516  -41.6335 N.am      5 UNK        -0.4663 
     35 CA         21.9320  -28.6576  -40.7788 C.3       5 UNK         0.0242 
     36 CB         20.7843  -27.7811  -40.2542 C.3       5 UNK        -0.1982 
     37 C          22.6194  -29.4074  -39.6256 C.2       5 UNK         0.5017 
     38 O          22.2259  -30.5331  -39.3216 O.2       5 UNK        -0.5012 
     39 N          23.6536  -28.7898  -39.0397 N.am      6 UNK        -0.4439 
     40 CA         24.4785  -29.3626  -37.9721 C.3       6 UNK         0.0297 
     41 CB         25.3893  -28.2650  -37.3980 C.3       6 UNK        -0.2006 
     42 C          25.3159  -30.5829  -38.4048 C.2       6 UNK         0.4892 
     43 O          25.6941  -31.3762  -37.5421 O.2       6 UNK        -0.5089 
     44 N          25.5991  -30.7060  -39.7086 N.am      7 UNK        -0.4243 
     45 CA         26.3157  -31.8327  -40.3066 C.3       7 UNK         0.0196 
     46 CB         27.4152  -31.2926  -41.2364 C.3       7 UNK        -0.2007 
     47 C          25.3623  -32.7489  -41.0876 C.2       7 UNK         0.5020 
     48 O          25.5469  -33.9658  -41.0684 O.2       7 UNK        -0.5147 
     49 N          24.3766  -32.1570  -41.7772 N.am      8 UNK        -0.4734 
     50 CA         23.4321  -32.8558  -42.6523 C.3       8 UNK         0.0238 
     51 CB         22.7179  -31.8290  -43.5461 C.3       8 UNK        -0.1912 
     52 C          22.4183  -33.7454  -41.9103 C.2       8 UNK         0.5038 
     53 O          21.9744  -34.7382  -42.4888 O.2       8 UNK        -0.5046 
     54 N          22.0811  -33.3916  -40.6642 N.am      9 UNK        -0.4200 
     55 CA         21.2344  -34.1838  -39.7609 C.3       9 UNK         0.0839 
     56 C          22.0772  -34.6827  -38.5607 C.2       9 UNK         0.5513 
     57 N          21.7852  -35.8728  -38.0523 N.am      9 UNK        -0.7519 
     58 O          22.9640  -33.9921  -38.0622 O.2       9 UNK        -0.4960 
     59 C59        20.0012  -33.3839  -39.2640 C.3       10 UNK        -0.0876 
     60 S60        18.8257  -32.9815  -40.6026 S.3       10 UNK        -0.2414 
     61 C61        19.3424  -31.2798  -40.9547 C.3       10 UNK         0.0169 
     62 H62        14.2882  -22.3574  -42.6294 H         1 UNK         0.0903 
     63 H63        14.9393  -20.8686  -43.3174 H         1 UNK         0.0903 
     64 H64        13.4086  -21.5197  -43.9094 H         1 UNK         0.0903 
     65 H65        15.3924  -24.1681  -43.3675 H         1 UNK         0.3096 
     66 H66        15.9039  -24.6311  -46.1579 H         1 UNK         0.1121 
     67 H67        17.0378  -26.7644  -45.2333 H         1 UNK         0.0849 
     68 H68        15.3219  -26.5812  -45.0354 H         1 UNK         0.0849 
     69 H69        15.3796  -28.2747  -41.7500 H         1 UNK         0.0865 
     70 H70        14.9614  -28.3158  -43.4405 H         1 UNK         0.0865 
     71 H71        17.2530  -29.5262  -40.9015 H         1 UNK         0.1346 
     72 H72        19.8224  -31.6344  -43.6036 H         1 UNK         0.1412 
     73 H73        16.7844  -29.0344  -45.1392 H         1 UNK         0.1426 
     74 H74        18.0632  -30.9590  -46.5650 H         1 UNK         0.0716 
     75 H75        19.6549  -31.3410  -45.9519 H         1 UNK         0.0716 
     76 H76        20.1172  -28.3221  -44.4592 H         1 UNK         0.0695 
     77 H77        21.3897  -29.2786  -45.1809 H         1 UNK         0.0695 
     78 H78        22.0528  -27.3479  -46.6269 H         1 UNK         0.0983 
     79 H79        19.5285  -26.2641  -45.8977 H         1 UNK         0.3095 
     80 H80        19.9351  -22.9723  -46.3187 H         1 UNK         0.0454 
     81 H81        20.6511  -23.1077  -48.6884 H         1 UNK         0.0851 
     82 H82        19.4983  -24.3976  -48.9967 H         1 UNK         0.0851 
     83 H83        18.9322  -22.7761  -48.5929 H         1 UNK         0.0851 
     84 H84        17.8478  -24.8202  -47.2279 H         1 UNK         0.2976 
     85 H85        23.7840  -28.0527  -45.2490 H         1 UNK         0.3116 
     86 H86        24.5057  -26.3383  -42.9790 H         1 UNK         0.0646 
     87 H87        26.5691  -27.7448  -42.9922 H         1 UNK         0.0847 
     88 H88        26.2516  -27.0790  -44.5855 H         1 UNK         0.0847 
     89 H89        25.8884  -28.7709  -44.2451 H         1 UNK         0.0847 
     90 H90        22.4257  -26.9698  -41.9591 H         1 UNK         0.3040 
     91 H91        21.4995  -29.4100  -41.4353 H         1 UNK         0.1015 
     92 H92        20.1877  -27.3786  -41.0737 H         1 UNK         0.0786 
     93 H93        21.1551  -26.9428  -39.6635 H         1 UNK         0.0786 
     94 H94        20.1089  -28.3552  -39.6185 H         1 UNK         0.0786 
     95 H95        23.9065  -27.8717  -39.3759 H         1 UNK         0.3172 
     96 H96        23.8064  -29.6971  -37.1789 H         1 UNK         0.0595 
     97 H97        24.8085  -27.4307  -37.0041 H         1 UNK         0.0839 
     98 H98        26.0750  -27.8740  -38.1508 H         1 UNK         0.0839 
     99 H99        25.9947  -28.6507  -36.5764 H         1 UNK         0.0839 
    100 H100       25.2251  -30.0191  -40.3558 H         1 UNK         0.2998 
    101 H101       26.7938  -32.4363  -39.5321 H         1 UNK         0.0822 
    102 H102       28.1326  -30.6833  -40.6865 H         1 UNK         0.0787 
    103 H103       27.9707  -32.1091  -41.6998 H         1 UNK         0.0787 
    104 H104       27.0028  -30.6800  -42.0395 H         1 UNK         0.0787 
    105 H105       24.3378  -31.1399  -41.7902 H         1 UNK         0.3055 
    106 H106       24.0133  -33.5154  -43.3008 H         1 UNK         0.1106 
    107 H107       22.1359  -31.1191  -42.9602 H         1 UNK         0.0828 
    108 H108       23.4312  -31.2603  -44.1431 H         1 UNK         0.0828 
    109 H109       22.0385  -32.3230  -44.2417 H         1 UNK         0.0828 
    110 H110       22.5145  -32.5769  -40.2466 H         1 UNK         0.2931 
    111 H111       20.8634  -35.0675  -40.2841 H         1 UNK         0.0412 
    112 H112       22.3123  -36.2101  -37.2615 H         1 UNK         0.3472 
    113 H113       21.0527  -36.4444  -38.4459 H         1 UNK         0.3472 
    114 H114       20.3132  -32.4712  -38.7522 H         1 UNK         0.0970 
    115 H115       19.4494  -33.9651  -38.5226 H         1 UNK         0.0970 
    116 H116       19.2176  -30.6683  -40.0600 H         1 UNK         0.0612 
    117 H117       20.4062  -31.2948  -41.1787 H         1 UNK         0.0612 
@<TRIPOS>BOND
     1    1    2 1    
     2    1   62 1    
     3    1   63 1    
     4    1   64 1    
     5    2    3 2    
     6    2    4 am   BACKBONE|DICT|INTERRES
     7    4    5 1    
     8    4   65 1    
     9    5    6 1    
    10    5   25 1    
    11    5   66 1    
    12    6    7 1    
    13    6   67 1    
    14    6   68 1    
    15    7    8 1    
    16    8    9 1    
    17    8   69 1    
    18    8   70 1    
    19    9   10 ar   
    20    9   14 ar   
    21   10   11 ar   
    22   10   71 1    
    23   11   12 ar   
    24   11   61 1    
    25   12   13 ar   
    26   12   72 1    
    27   13   14 ar   
    28   13   15 1    
    29   14   73 1    
    30   15   16 1    
    31   15   74 1    
    32   15   75 1    
    33   16   17 1    
    34   17   18 1    
    35   17   76 1    
    36   17   77 1    
    37   18   19 1    
    38   18   27 1    
    39   18   78 1    
    40   19   20 am   BACKBONE|DICT|INTERRES
    41   19   79 1    
    42   20   21 2    
    43   20   22 1    
    44   22   23 1    
    45   22   24 1    
    46   22   80 1    
    47   23   81 1    
    48   23   82 1    
    49   23   83 1    
    50   24   25 am   BACKBONE|DICT|INTERRES
    51   24   84 1    
    52   25   26 2    
    53   27   28 2    
    54   27   29 am   BACKBONE|DICT|INTERRES
    55   29   30 1    
    56   29   85 1    
    57   30   31 1    
    58   30   32 1    
    59   30   86 1    
    60   31   87 1    
    61   31   88 1    
    62   31   89 1    
    63   32   33 2    
    64   32   34 am   BACKBONE|DICT|INTERRES
    65   34   35 1    
    66   34   90 1    
    67   35   36 1    
    68   35   37 1    
    69   35   91 1    
    70   36   92 1    
    71   36   93 1    
    72   36   94 1    
    73   37   38 2    
    74   37   39 am   BACKBONE|DICT|INTERRES
    75   39   40 1    
    76   39   95 1    
    77   40   41 1    
    78   40   42 1    
    79   40   96 1    
    80   41   97 1    
    81   41   98 1    
    82   41   99 1    
    83   42   43 2    
    84   42   44 am   BACKBONE|DICT|INTERRES
    85   44   45 1    
    86   44  100 1    
    87   45   46 1    
    88   45   47 1    
    89   45  101 1    
    90   46  102 1    
    91   46  103 1    
    92   46  104 1    
    93   47   48 2    
    94   47   49 am   BACKBONE|DICT|INTERRES
    95   49   50 1    
    96   49  105 1    
    97   50   51 1    
    98   50   52 1    
    99   50  106 1    
   100   51  107 1    
   101   51  108 1    
   102   51  109 1    
   103   52   53 2    
   104   52   54 am   BACKBONE|DICT|INTERRES
   105   54   55 1    
   106   54  110 1    
   107   55   56 1    
   108   55   59 1    
   109   55  111 1    
   110   56   57 am   BACKBONE|DICT|INTERRES
   111   56   58 2    
   112   57  112 1    
   113   57  113 1    
   114   59   60 1    
   115   59  114 1    
   116   59  115 1    
   117   60   61 1    
   118   61  116 1    
   119   61  117 1    
@<TRIPOS>SUBSTRUCTURE
     1 UNK         1 GROUP             0       ****    0 ROOT    
