@<TRIPOS>MOLECULE
3R8
117   119    1
SMALL
USER_CHARGES


@<TRIPOS>ATOM
      1 CA         17.7899  -21.4480  -46.3408 C.3       0 UNK        -0.2013 
      2 C          18.1727  -22.8949  -46.6140 C.2       0 UNK         0.4866 
      3 O          19.1060  -23.1470  -47.3762 O.2       0 UNK        -0.5176 
      4 N          17.4573  -23.8475  -45.9999 N.am      1 UNK        -0.4884 
      5 CA         17.6915  -25.2923  -46.1420 C.3       1 UNK         0.0853 
      6 C6         16.4864  -26.1254  -45.6131 C.3       10 UNK        -0.0849 
      7 S7         15.6526  -27.0881  -46.9161 S.3       10 UNK        -0.2776 
      8 C8         16.8551  -28.4281  -47.2433 C.3       10 UNK         0.0316 
      9 C9         17.1444  -29.3891  -46.0866 C.ar      10 UNK        -0.0863 
     10 C10        18.3000  -30.1743  -46.1568 C.ar      10 UNK        -0.1009 
     11 C11        18.6020  -31.1027  -45.1571 C.ar      10 UNK        -0.0712 
     12 C12        17.7373  -31.2429  -44.0691 C.ar      10 UNK        -0.0894 
     13 C13        16.5965  -30.4436  -43.9624 C.ar      10 UNK        -0.0745 
     14 C14        16.2933  -29.5360  -44.9826 C.ar      10 UNK        -0.0972 
     15 C15        15.6906  -30.5620  -42.7438 C.3       10 UNK         0.0209 
     16 S16        16.5450  -30.1131  -41.1942 S.3       10 UNK        -0.2568 
     17 C17        17.0589  -28.3900  -41.5110 C.3       10 UNK        -0.0983 
     18 CA         18.5998  -28.2600  -41.6157 C.3       3 UNK         0.0876 
     19 N          18.9952  -27.0824  -42.3935 N.am      3 UNK        -0.4424 
     20 C          20.2562  -26.7709  -42.7335 C.2       2 UNK         0.4918 
     21 O          21.2271  -27.4880  -42.4826 O.2       2 UNK        -0.4875 
     22 CA         20.4593  -25.4128  -43.4377 C.3       2 UNK         0.0481 
     23 CB         21.8343  -25.2889  -44.1268 C.3       2 UNK        -0.1831 
     24 N          19.3637  -25.0780  -44.3567 N.am      2 UNK        -0.4498 
     25 C          18.9981  -25.7521  -45.4599 C.2       1 UNK         0.5027 
     26 O          19.6150  -26.7114  -45.9222 O.2       1 UNK        -0.4969 
     27 C          19.2691  -28.2099  -40.2259 C.2       3 UNK         0.5005 
     28 O          19.2021  -27.1692  -39.5658 O.2       3 UNK        -0.5279 
     29 N          19.9665  -29.2911  -39.8488 N.am      4 UNK        -0.4463 
     30 CA         20.8740  -29.4369  -38.6986 C.3       4 UNK         0.0283 
     31 CB         20.1484  -29.2127  -37.3577 C.3       4 UNK        -0.1875 
     32 C          22.1554  -28.5823  -38.7889 C.2       4 UNK         0.4949 
     33 O          23.2360  -29.0915  -38.4941 O.2       4 UNK        -0.5039 
     34 N          22.0285  -27.3171  -39.2110 N.am      5 UNK        -0.4663 
     35 CA         23.1047  -26.3283  -39.3433 C.3       5 UNK         0.0242 
     36 CB         22.5031  -24.9835  -39.7805 C.3       5 UNK        -0.1982 
     37 C          24.2404  -26.7436  -40.2951 C.2       5 UNK         0.5017 
     38 O          25.3928  -26.3922  -40.0413 O.2       5 UNK        -0.5012 
     39 N          23.9089  -27.5036  -41.3487 N.am      6 UNK        -0.4439 
     40 CA         24.8657  -28.0861  -42.2950 C.3       6 UNK         0.0297 
     41 CB         24.1122  -28.5425  -43.5550 C.3       6 UNK        -0.2006 
     42 C          25.6989  -29.2510  -41.7225 C.2       6 UNK         0.4892 
     43 O          26.6113  -29.7108  -42.4101 O.2       6 UNK        -0.5089 
     44 N          25.3633  -29.7399  -40.5170 N.am      7 UNK        -0.4243 
     45 CA         25.9757  -30.8437  -39.7592 C.3       7 UNK         0.0196 
     46 CB         27.4668  -30.5815  -39.4702 C.3       7 UNK        -0.2007 
     47 C          25.7619  -32.2398  -40.3714 C.2       7 UNK         0.5020 
     48 O          25.4986  -33.1855  -39.6288 O.2       7 UNK        -0.5147 
     49 N          25.8565  -32.3523  -41.7019 N.am      8 UNK        -0.4734 
     50 CA         25.5292  -33.5576  -42.4689 C.3       8 UNK         0.0238 
     51 CB         26.0857  -33.4197  -43.8951 C.3       8 UNK        -0.1912 
     52 C          24.0160  -33.8354  -42.5024 C.2       8 UNK         0.5038 
     53 O          23.6144  -34.9995  -42.5246 O.2       8 UNK        -0.5046 
     54 N          23.2144  -32.7629  -42.4970 N.am      9 UNK        -0.4200 
     55 CA         21.7537  -32.8025  -42.3664 C.3       9 UNK         0.0839 
     56 C          21.3232  -33.1769  -40.9248 C.2       9 UNK         0.5513 
     57 N          20.2849  -33.9872  -40.7767 N.am      9 UNK        -0.7519 
     58 O          21.8860  -32.6945  -39.9460 O.2       9 UNK        -0.4960 
     59 C59        21.1105  -31.4593  -42.7956 C.3       10 UNK        -0.0876 
     60 S60        21.3206  -31.1396  -44.5781 S.3       10 UNK        -0.2414 
     61 C61        19.8516  -31.9639  -45.2713 C.3       10 UNK         0.0169 
     62 H62        16.9469  -21.3703  -45.6545 H         1 UNK         0.0903 
     63 H63        18.6330  -20.9131  -45.9043 H         1 UNK         0.0903 
     64 H64        17.5160  -20.9507  -47.2710 H         1 UNK         0.0903 
     65 H65        16.6889  -23.5778  -45.4014 H         1 UNK         0.3096 
     66 H66        17.8268  -25.4859  -47.2088 H         1 UNK         0.1121 
     67 H67        16.7632  -26.8068  -44.8063 H         1 UNK         0.0849 
     68 H68        15.7293  -25.4775  -45.1685 H         1 UNK         0.0849 
     69 H69        16.4812  -29.0164  -48.0822 H         1 UNK         0.0865 
     70 H70        17.7883  -27.9781  -47.5848 H         1 UNK         0.0865 
     71 H71        18.9682  -30.0695  -47.0010 H         1 UNK         0.1346 
     72 H72        17.9531  -31.9647  -43.2939 H         1 UNK         0.1412 
     73 H73        15.3927  -28.9434  -44.9078 H         1 UNK         0.1426 
     74 H74        15.3317  -31.5890  -42.6647 H         1 UNK         0.0716 
     75 H75        14.8044  -29.9348  -42.8526 H         1 UNK         0.0716 
     76 H76        16.5878  -28.0543  -42.4356 H         1 UNK         0.0695 
     77 H77        16.6535  -27.7457  -40.7281 H         1 UNK         0.0695 
     78 H78        18.9852  -29.1209  -42.1667 H         1 UNK         0.0983 
     79 H79        18.2682  -26.4134  -42.5925 H         1 UNK         0.3095 
     80 H80        20.4253  -24.6609  -42.6484 H         1 UNK         0.0454 
     81 H81        22.6447  -25.4003  -43.4054 H         1 UNK         0.0851 
     82 H82        21.9548  -24.3145  -44.5996 H         1 UNK         0.0851 
     83 H83        21.9748  -26.0524  -44.8921 H         1 UNK         0.0851 
     84 H84        18.7924  -24.2884  -44.0891 H         1 UNK         0.2976 
     85 H85        19.9446  -30.0927  -40.4613 H         1 UNK         0.3116 
     86 H86        21.1978  -30.4777  -38.7135 H         1 UNK         0.0646 
     87 H87        19.8252  -28.1794  -37.2305 H         1 UNK         0.0847 
     88 H88        19.2705  -29.8525  -37.2702 H         1 UNK         0.0847 
     89 H89        20.8056  -29.4481  -36.5196 H         1 UNK         0.0847 
     90 H90        21.0832  -27.0006  -39.4127 H         1 UNK         0.3040 
     91 H91        23.5475  -26.2003  -38.3532 H         1 UNK         0.1015 
     92 H92        23.2738  -24.2145  -39.8508 H         1 UNK         0.0786 
     93 H93        21.7582  -24.6303  -39.0671 H         1 UNK         0.0786 
     94 H94        22.0248  -25.0559  -40.7571 H         1 UNK         0.0786 
     95 H95        22.9234  -27.6794  -41.5288 H         1 UNK         0.3172 
     96 H96        25.5701  -27.3052  -42.5884 H         1 UNK         0.0595 
     97 H97        23.3610  -29.2964  -43.3226 H         1 UNK         0.0839 
     98 H98        24.7917  -28.9740  -44.2913 H         1 UNK         0.0839 
     99 H99        23.6060  -27.7087  -44.0394 H         1 UNK         0.0839 
    100 H100       24.5785  -29.3065  -40.0407 H         1 UNK         0.2998 
    101 H101       25.4570  -30.8495  -38.7989 H         1 UNK         0.0822 
    102 H102       27.8728  -31.3467  -38.8073 H         1 UNK         0.0787 
    103 H103       27.6113  -29.6183  -38.9808 H         1 UNK         0.0787 
    104 H104       28.0693  -30.5906  -40.3789 H         1 UNK         0.0787 
    105 H105       26.1377  -31.5217  -42.2179 H         1 UNK         0.3055 
    106 H106       26.0114  -34.4127  -41.9895 H         1 UNK         0.1106 
    107 H107       27.1681  -33.2906  -43.8874 H         1 UNK         0.0828 
    108 H108       25.8708  -34.3115  -44.4854 H         1 UNK         0.0828 
    109 H109       25.6500  -32.5681  -44.4195 H         1 UNK         0.0828 
    110 H110       23.6428  -31.8520  -42.4572 H         1 UNK         0.2931 
    111 H111       21.3858  -33.5825  -43.0366 H         1 UNK         0.0412 
    112 H112       19.9812  -34.2264  -39.8456 H         1 UNK         0.3472 
    113 H113       19.8145  -34.3878  -41.5734 H         1 UNK         0.3472 
    114 H114       20.0481  -31.4433  -42.5573 H         1 UNK         0.0970 
    115 H115       21.5503  -30.6272  -42.2428 H         1 UNK         0.0970 
    116 H116       19.7005  -32.9269  -44.7814 H         1 UNK         0.0612 
    117 H117       20.0445  -32.1880  -46.3215 H         1 UNK         0.0612 
@<TRIPOS>BOND
     1    1    2 1    
     2    1   62 1    
     3    1   63 1    
     4    1   64 1    
     5    2    3 2    
     6    2    4 am   BACKBONE|DICT|INTERRES
     7    4    5 1    
     8    4   65 1    
     9    5    6 1    
    10    5   25 1    
    11    5   66 1    
    12    6    7 1    
    13    6   67 1    
    14    6   68 1    
    15    7    8 1    
    16    8    9 1    
    17    8   69 1    
    18    8   70 1    
    19    9   10 ar   
    20    9   14 ar   
    21   10   11 ar   
    22   10   71 1    
    23   11   12 ar   
    24   11   61 1    
    25   12   13 ar   
    26   12   72 1    
    27   13   14 ar   
    28   13   15 1    
    29   14   73 1    
    30   15   16 1    
    31   15   74 1    
    32   15   75 1    
    33   16   17 1    
    34   17   18 1    
    35   17   76 1    
    36   17   77 1    
    37   18   19 1    
    38   18   27 1    
    39   18   78 1    
    40   19   20 am   BACKBONE|DICT|INTERRES
    41   19   79 1    
    42   20   21 2    
    43   20   22 1    
    44   22   23 1    
    45   22   24 1    
    46   22   80 1    
    47   23   81 1    
    48   23   82 1    
    49   23   83 1    
    50   24   25 am   BACKBONE|DICT|INTERRES
    51   24   84 1    
    52   25   26 2    
    53   27   28 2    
    54   27   29 am   BACKBONE|DICT|INTERRES
    55   29   30 1    
    56   29   85 1    
    57   30   31 1    
    58   30   32 1    
    59   30   86 1    
    60   31   87 1    
    61   31   88 1    
    62   31   89 1    
    63   32   33 2    
    64   32   34 am   BACKBONE|DICT|INTERRES
    65   34   35 1    
    66   34   90 1    
    67   35   36 1    
    68   35   37 1    
    69   35   91 1    
    70   36   92 1    
    71   36   93 1    
    72   36   94 1    
    73   37   38 2    
    74   37   39 am   BACKBONE|DICT|INTERRES
    75   39   40 1    
    76   39   95 1    
    77   40   41 1    
    78   40   42 1    
    79   40   96 1    
    80   41   97 1    
    81   41   98 1    
    82   41   99 1    
    83   42   43 2    
    84   42   44 am   BACKBONE|DICT|INTERRES
    85   44   45 1    
    86   44  100 1    
    87   45   46 1    
    88   45   47 1    
    89   45  101 1    
    90   46  102 1    
    91   46  103 1    
    92   46  104 1    
    93   47   48 2    
    94   47   49 am   BACKBONE|DICT|INTERRES
    95   49   50 1    
    96   49  105 1    
    97   50   51 1    
    98   50   52 1    
    99   50  106 1    
   100   51  107 1    
   101   51  108 1    
   102   51  109 1    
   103   52   53 2    
   104   52   54 am   BACKBONE|DICT|INTERRES
   105   54   55 1    
   106   54  110 1    
   107   55   56 1    
   108   55   59 1    
   109   55  111 1    
   110   56   57 am   BACKBONE|DICT|INTERRES
   111   56   58 2    
   112   57  112 1    
   113   57  113 1    
   114   59   60 1    
   115   59  114 1    
   116   59  115 1    
   117   60   61 1    
   118   61  116 1    
   119   61  117 1    
@<TRIPOS>SUBSTRUCTURE
     1 UNK         1 GROUP             0       ****    0 ROOT    
