@<TRIPOS>MOLECULE
3R8
117   119    1
SMALL
USER_CHARGES


@<TRIPOS>ATOM
      1 CA         16.1194  -27.4485  -48.8805 C.3       0 UNK        -0.2013 
      2 C          17.1949  -27.0826  -47.8696 C.2       0 UNK         0.4866 
      3 O          16.8723  -26.7789  -46.7217 O.2       0 UNK        -0.5176 
      4 N          18.4668  -27.0970  -48.2928 N.am      1 UNK        -0.4884 
      5 CA         19.7005  -26.8431  -47.5242 C.3       1 UNK         0.0853 
      6 C6         19.9037  -27.7921  -46.3122 C.3       10 UNK        -0.0849 
      7 S7         19.9862  -29.5594  -46.7599 S.3       10 UNK        -0.2776 
      8 C8         18.4384  -30.2171  -46.0506 C.3       10 UNK         0.0316 
      9 C9         18.2937  -29.9323  -44.5593 C.ar      10 UNK        -0.0863 
     10 C10        19.2365  -30.4137  -43.6458 C.ar      10 UNK        -0.1009 
     11 C11        19.1038  -30.1465  -42.2798 C.ar      10 UNK        -0.0712 
     12 C12        18.0130  -29.3965  -41.8266 C.ar      10 UNK        -0.0894 
     13 C13        17.0512  -28.9285  -42.7278 C.ar      10 UNK        -0.0745 
     14 C14        17.2022  -29.1938  -44.0920 C.ar      10 UNK        -0.0972 
     15 C15        15.8181  -28.1850  -42.2321 C.3       10 UNK         0.0209 
     16 S16        15.7905  -26.4448  -42.7660 S.3       10 UNK        -0.2568 
     17 C17        16.9879  -25.6775  -41.6239 C.3       10 UNK        -0.0983 
     18 CA         18.3582  -25.3890  -42.2843 C.3       3 UNK         0.0876 
     19 N          18.2175  -24.6032  -43.5163 N.am      3 UNK        -0.4424 
     20 C          19.1947  -24.0911  -44.2772 C.2       2 UNK         0.4918 
     21 O          20.3914  -24.0901  -43.9843 O.2       2 UNK        -0.4875 
     22 CA         18.7443  -23.6063  -45.6656 C.3       2 UNK         0.0481 
     23 CB         19.5341  -22.3822  -46.1758 C.3       2 UNK        -0.1831 
     24 N          18.7985  -24.7522  -46.5807 N.am      2 UNK        -0.4498 
     25 C          19.8850  -25.3854  -47.0490 C.2       1 UNK         0.5027 
     26 O          21.0158  -24.8988  -47.0781 O.2       1 UNK        -0.4969 
     27 C          19.3168  -24.7641  -41.2501 C.2       3 UNK         0.5005 
     28 O          19.1968  -23.5786  -40.9290 O.2       3 UNK        -0.5279 
     29 N          20.2261  -25.5956  -40.7373 N.am      4 UNK        -0.4463 
     30 CA         21.2730  -25.2971  -39.7670 C.3       4 UNK         0.0283 
     31 CB         22.3581  -24.4051  -40.4070 C.3       4 UNK        -0.1875 
     32 C          21.8505  -26.6466  -39.3157 C.2       4 UNK         0.4949 
     33 O          21.4037  -27.6924  -39.7980 O.2       4 UNK        -0.5039 
     34 N          22.8621  -26.6215  -38.4392 N.am      5 UNK        -0.4663 
     35 CA         23.6096  -27.7997  -37.9758 C.3       5 UNK         0.0242 
     36 CB         24.3286  -27.4456  -36.6602 C.3       5 UNK        -0.1982 
     37 C          24.5733  -28.3552  -39.0507 C.2       5 UNK         0.5017 
     38 O          25.7721  -28.4948  -38.7998 O.2       5 UNK        -0.5012 
     39 N          24.0307  -28.6323  -40.2412 N.am      6 UNK        -0.4439 
     40 CA         24.7257  -29.1936  -41.3963 C.3       6 UNK         0.0297 
     41 CB         23.8722  -28.9458  -42.6521 C.3       6 UNK        -0.2006 
     42 C          24.9881  -30.6956  -41.2166 C.2       6 UNK         0.4892 
     43 O          24.2257  -31.3760  -40.5251 O.2       6 UNK        -0.5089 
     44 N          26.0274  -31.1931  -41.9025 N.am      7 UNK        -0.4243 
     45 CA         26.4691  -32.5948  -41.8930 C.3       7 UNK         0.0196 
     46 CB         27.7372  -32.7321  -42.7507 C.3       7 UNK        -0.2007 
     47 C          25.4017  -33.6066  -42.3490 C.2       7 UNK         0.5020 
     48 O          25.4436  -34.7592  -41.9192 O.2       7 UNK        -0.5147 
     49 N          24.4358  -33.1519  -43.1602 N.am      8 UNK        -0.4734 
     50 CA         23.2441  -33.9037  -43.5690 C.3       8 UNK         0.0238 
     51 CB         22.4513  -33.0649  -44.5850 C.3       8 UNK        -0.1912 
     52 C          22.3348  -34.3279  -42.3973 C.2       8 UNK         0.5038 
     53 O          21.6144  -35.3175  -42.5336 O.2       8 UNK        -0.5046 
     54 N          22.3993  -33.5935  -41.2791 N.am      9 UNK        -0.4200 
     55 CA         21.7251  -33.9046  -40.0108 C.3       9 UNK         0.0839 
     56 C          22.6920  -34.5051  -38.9476 C.2       9 UNK         0.5513 
     57 N          23.9248  -34.8689  -39.2839 N.am      9 UNK        -0.7519 
     58 O          22.3105  -34.6707  -37.7916 O.2       9 UNK        -0.4960 
     59 C59        20.9504  -32.6727  -39.4710 C.3       10 UNK        -0.0876 
     60 S60        19.5407  -32.2347  -40.5434 S.3       10 UNK        -0.2414 
     61 C61        20.1254  -30.6867  -41.2913 C.3       10 UNK         0.0169 
     62 H62        16.5405  -27.6979  -49.8543 H         1 UNK         0.0903 
     63 H63        15.5517  -28.3086  -48.5265 H         1 UNK         0.0903 
     64 H64        15.4294  -26.6155  -49.0116 H         1 UNK         0.0903 
     65 H65        18.6352  -27.3289  -49.2624 H         1 UNK         0.3096 
     66 H66        20.5175  -27.0316  -48.2233 H         1 UNK         0.1121 
     67 H67        20.8430  -27.5611  -45.8051 H         1 UNK         0.0849 
     68 H68        19.1266  -27.6237  -45.5660 H         1 UNK         0.0849 
     69 H69        18.4091  -31.2959  -46.2089 H         1 UNK         0.0865 
     70 H70        17.5956  -29.8056  -46.6074 H         1 UNK         0.0865 
     71 H71        20.0738  -30.9962  -44.0024 H         1 UNK         0.1346 
     72 H72        17.9013  -29.2043  -40.7681 H         1 UNK         0.1412 
     73 H73        16.4623  -28.8233  -44.7894 H         1 UNK         0.1426 
     74 H74        15.7332  -28.2392  -41.1456 H         1 UNK         0.0716 
     75 H75        14.9303  -28.6807  -42.6273 H         1 UNK         0.0716 
     76 H76        17.1110  -26.3195  -40.7495 H         1 UNK         0.0695 
     77 H77        16.5425  -24.7509  -41.2560 H         1 UNK         0.0695 
     78 H78        18.7812  -26.3458  -42.5990 H         1 UNK         0.0983 
     79 H79        17.2733  -24.5649  -43.8722 H         1 UNK         0.3095 
     80 H80        17.6953  -23.3119  -45.6035 H         1 UNK         0.0454 
     81 H81        19.2427  -22.1176  -47.1920 H         1 UNK         0.0851 
     82 H82        20.6118  -22.5445  -46.1670 H         1 UNK         0.0851 
     83 H83        19.3406  -21.5141  -45.5451 H         1 UNK         0.0851 
     84 H84        17.9463  -25.3103  -46.6108 H         1 UNK         0.2976 
     85 H85        20.2191  -26.5765  -40.9970 H         1 UNK         0.3116 
     86 H86        20.8315  -24.7968  -38.9031 H         1 UNK         0.0646 
     87 H87        23.1397  -24.1489  -39.6915 H         1 UNK         0.0847 
     88 H88        21.9431  -23.4644  -40.7687 H         1 UNK         0.0847 
     89 H89        22.8370  -24.9011  -41.2525 H         1 UNK         0.0847 
     90 H90        23.1921  -25.7260  -38.1082 H         1 UNK         0.3040 
     91 H91        22.8955  -28.5970  -37.7559 H         1 UNK         0.1015 
     92 H92        23.6225  -27.1153  -35.8981 H         1 UNK         0.0786 
     93 H93        25.0650  -26.6536  -36.8027 H         1 UNK         0.0786 
     94 H94        24.8544  -28.3118  -36.2559 H         1 UNK         0.0786 
     95 H95        23.0272  -28.4951  -40.3265 H         1 UNK         0.3172 
     96 H96        25.6815  -28.6776  -41.5103 H         1 UNK         0.0595 
     97 H97        22.9046  -29.4450  -42.5902 H         1 UNK         0.0839 
     98 H98        24.3720  -29.3138  -43.5489 H         1 UNK         0.0839 
     99 H99        23.6878  -27.8817  -42.8018 H         1 UNK         0.0839 
    100 H100       26.5818  -30.5568  -42.4578 H         1 UNK         0.2998 
    101 H101       26.7243  -32.8454  -40.8611 H         1 UNK         0.0822 
    102 H102       27.5524  -32.4617  -43.7912 H         1 UNK         0.0787 
    103 H103       28.5420  -32.0995  -42.3756 H         1 UNK         0.0787 
    104 H104       28.1056  -33.7592  -42.7417 H         1 UNK         0.0787 
    105 H105       24.4929  -32.1916  -43.4655 H         1 UNK         0.3055 
    106 H106       23.5802  -34.8193  -44.0607 H         1 UNK         0.1106 
    107 H107       21.5446  -33.5831  -44.9009 H         1 UNK         0.0828 
    108 H108       23.0381  -32.8682  -45.4824 H         1 UNK         0.0828 
    109 H109       22.1496  -32.1054  -44.1645 H         1 UNK         0.0828 
    110 H110       23.0535  -32.8185  -41.2340 H         1 UNK         0.2931 
    111 H111       20.9896  -34.6927  -40.1811 H         1 UNK         0.0412 
    112 H112       24.5266  -35.2629  -38.5782 H         1 UNK         0.3472 
    113 H113       24.2601  -34.7795  -40.2353 H         1 UNK         0.3472 
    114 H114       20.5394  -32.8757  -38.4804 H         1 UNK         0.0970 
    115 H115       21.6192  -31.8183  -39.3500 H         1 UNK         0.0970 
    116 H116       20.3063  -29.9545  -40.5045 H         1 UNK         0.0612 
    117 H117       21.0822  -30.8625  -41.7849 H         1 UNK         0.0612 
@<TRIPOS>BOND
     1    1    2 1    
     2    1   62 1    
     3    1   63 1    
     4    1   64 1    
     5    2    3 2    
     6    2    4 am   BACKBONE|DICT|INTERRES
     7    4    5 1    
     8    4   65 1    
     9    5    6 1    
    10    5   25 1    
    11    5   66 1    
    12    6    7 1    
    13    6   67 1    
    14    6   68 1    
    15    7    8 1    
    16    8    9 1    
    17    8   69 1    
    18    8   70 1    
    19    9   10 ar   
    20    9   14 ar   
    21   10   11 ar   
    22   10   71 1    
    23   11   12 ar   
    24   11   61 1    
    25   12   13 ar   
    26   12   72 1    
    27   13   14 ar   
    28   13   15 1    
    29   14   73 1    
    30   15   16 1    
    31   15   74 1    
    32   15   75 1    
    33   16   17 1    
    34   17   18 1    
    35   17   76 1    
    36   17   77 1    
    37   18   19 1    
    38   18   27 1    
    39   18   78 1    
    40   19   20 am   BACKBONE|DICT|INTERRES
    41   19   79 1    
    42   20   21 2    
    43   20   22 1    
    44   22   23 1    
    45   22   24 1    
    46   22   80 1    
    47   23   81 1    
    48   23   82 1    
    49   23   83 1    
    50   24   25 am   BACKBONE|DICT|INTERRES
    51   24   84 1    
    52   25   26 2    
    53   27   28 2    
    54   27   29 am   BACKBONE|DICT|INTERRES
    55   29   30 1    
    56   29   85 1    
    57   30   31 1    
    58   30   32 1    
    59   30   86 1    
    60   31   87 1    
    61   31   88 1    
    62   31   89 1    
    63   32   33 2    
    64   32   34 am   BACKBONE|DICT|INTERRES
    65   34   35 1    
    66   34   90 1    
    67   35   36 1    
    68   35   37 1    
    69   35   91 1    
    70   36   92 1    
    71   36   93 1    
    72   36   94 1    
    73   37   38 2    
    74   37   39 am   BACKBONE|DICT|INTERRES
    75   39   40 1    
    76   39   95 1    
    77   40   41 1    
    78   40   42 1    
    79   40   96 1    
    80   41   97 1    
    81   41   98 1    
    82   41   99 1    
    83   42   43 2    
    84   42   44 am   BACKBONE|DICT|INTERRES
    85   44   45 1    
    86   44  100 1    
    87   45   46 1    
    88   45   47 1    
    89   45  101 1    
    90   46  102 1    
    91   46  103 1    
    92   46  104 1    
    93   47   48 2    
    94   47   49 am   BACKBONE|DICT|INTERRES
    95   49   50 1    
    96   49  105 1    
    97   50   51 1    
    98   50   52 1    
    99   50  106 1    
   100   51  107 1    
   101   51  108 1    
   102   51  109 1    
   103   52   53 2    
   104   52   54 am   BACKBONE|DICT|INTERRES
   105   54   55 1    
   106   54  110 1    
   107   55   56 1    
   108   55   59 1    
   109   55  111 1    
   110   56   57 am   BACKBONE|DICT|INTERRES
   111   56   58 2    
   112   57  112 1    
   113   57  113 1    
   114   59   60 1    
   115   59  114 1    
   116   59  115 1    
   117   60   61 1    
   118   61  116 1    
   119   61  117 1    
@<TRIPOS>SUBSTRUCTURE
     1 UNK         1 GROUP             0       ****    0 ROOT    
