@<TRIPOS>MOLECULE
3R8
117   119    1
SMALL
USER_CHARGES


@<TRIPOS>ATOM
      1 CA         14.3158  -23.7473  -41.5030 C.3       0 UNK        -0.2013 
      2 C          14.8310  -24.4222  -42.7653 C.2       0 UNK         0.4866 
      3 O          14.5162  -23.9766  -43.8689 O.2       0 UNK        -0.5176 
      4 N          15.6173  -25.4960  -42.6109 N.am      1 UNK        -0.4884 
      5 CA         16.2064  -26.2710  -43.7108 C.3       1 UNK         0.0853 
      6 C6         16.8200  -27.6000  -43.2088 C.3       10 UNK        -0.0849 
      7 S7         15.5469  -28.8350  -42.7829 S.3       10 UNK        -0.2776 
      8 C8         15.2778  -29.6795  -44.3821 C.3       10 UNK         0.0316 
      9 C9         16.5703  -30.2158  -44.9847 C.ar      10 UNK        -0.0863 
     10 C10        17.2735  -31.2388  -44.3421 C.ar      10 UNK        -0.1009 
     11 C11        18.4955  -31.6866  -44.8513 C.ar      10 UNK        -0.0712 
     12 C12        19.0002  -31.1225  -46.0263 C.ar      10 UNK        -0.0894 
     13 C13        18.3056  -30.1007  -46.6803 C.ar      10 UNK        -0.0745 
     14 C14        17.0859  -29.6576  -46.1602 C.ar      10 UNK        -0.0972 
     15 C15        18.8889  -29.4611  -47.9340 C.3       10 UNK         0.0209 
     16 S16        19.4882  -27.7636  -47.6387 S.3       10 UNK        -0.2568 
     17 C17        20.7363  -28.0271  -46.3347 C.3       10 UNK        -0.0983 
     18 CA         21.3021  -26.7069  -45.7522 C.3       3 UNK         0.0876 
     19 N          20.2422  -25.8120  -45.2673 N.am      3 UNK        -0.4424 
     20 C          20.4064  -24.5716  -44.7862 C.2       2 UNK         0.4918 
     21 O          21.5026  -24.0185  -44.6968 O.2       2 UNK        -0.4875 
     22 CA         19.1553  -23.8032  -44.3054 C.3       2 UNK         0.0481 
     23 CB         18.6794  -22.8056  -45.3795 C.3       2 UNK        -0.1831 
     24 N          18.0422  -24.6346  -43.8157 N.am      2 UNK        -0.4498 
     25 C          17.2652  -25.4837  -44.5057 C.2       1 UNK         0.5027 
     26 O          17.3878  -25.6979  -45.7107 O.2       1 UNK        -0.4969 
     27 C          22.3420  -27.0317  -44.6606 C.2       3 UNK         0.5005 
     28 O          23.5432  -27.0116  -44.9367 O.2       3 UNK        -0.5279 
     29 N          21.8480  -27.3239  -43.4465 N.am      4 UNK        -0.4463 
     30 CA         22.5586  -27.6590  -42.2041 C.3       4 UNK         0.0283 
     31 CB         23.4311  -26.4844  -41.7215 C.3       4 UNK        -0.1875 
     32 C          23.3704  -28.9661  -42.2448 C.2       4 UNK         0.4949 
     33 O          23.2165  -29.7832  -41.3381 O.2       4 UNK        -0.5039 
     34 N          24.2260  -29.1278  -43.2638 N.am      5 UNK        -0.4663 
     35 CA         25.1412  -30.2528  -43.5033 C.3       5 UNK         0.0242 
     36 CB         24.3471  -31.5155  -43.8949 C.3       5 UNK        -0.1982 
     37 C          26.0938  -30.4949  -42.3166 C.2       5 UNK         0.5017 
     38 O          26.1720  -31.6111  -41.8040 O.2       5 UNK        -0.5012 
     39 N          26.7553  -29.4190  -41.8614 N.am      6 UNK        -0.4439 
     40 CA         27.6038  -29.3590  -40.6596 C.3       6 UNK         0.0297 
     41 CB         28.8840  -30.2030  -40.8403 C.3       6 UNK        -0.2006 
     42 C          26.8285  -29.7070  -39.3697 C.2       6 UNK         0.4892 
     43 O          27.3617  -30.3775  -38.4847 O.2       6 UNK        -0.5089 
     44 N          25.5706  -29.2449  -39.3167 N.am      7 UNK        -0.4243 
     45 CA         24.5576  -29.4498  -38.2752 C.3       7 UNK         0.0196 
     46 CB         25.0440  -28.9462  -36.8995 C.3       7 UNK        -0.2007 
     47 C          23.9804  -30.8780  -38.2079 C.2       7 UNK         0.5020 
     48 O          23.2068  -31.1581  -37.2910 O.2       7 UNK        -0.5147 
     49 N          24.2980  -31.7488  -39.1790 N.am      8 UNK        -0.4734 
     50 CA         23.7419  -33.1042  -39.2783 C.3       8 UNK         0.0238 
     51 CB         24.5198  -33.9165  -40.3244 C.3       8 UNK        -0.1912 
     52 C          22.2361  -33.1233  -39.5963 C.2       8 UNK         0.5038 
     53 O          21.5502  -34.0546  -39.1722 O.2       8 UNK        -0.5046 
     54 N          21.7484  -32.0977  -40.3070 N.am      9 UNK        -0.4200 
     55 CA         20.3191  -31.8748  -40.5780 C.3       9 UNK         0.0839 
     56 C          19.5676  -31.1614  -39.4149 C.2       9 UNK         0.5513 
     57 N          20.2129  -30.8047  -38.3092 N.am      9 UNK        -0.7519 
     58 O          18.3642  -30.9371  -39.5112 O.2       9 UNK        -0.4960 
     59 C59        20.0918  -31.1517  -41.9319 C.3       10 UNK        -0.0876 
     60 S60        20.7817  -32.0843  -43.3421 S.3       10 UNK        -0.2414 
     61 C61        19.2856  -32.7644  -44.1250 C.3       10 UNK         0.0169 
     62 H62        13.2261  -23.7561  -41.4913 H         1 UNK         0.0903 
     63 H63        14.6681  -24.2456  -40.6000 H         1 UNK         0.0903 
     64 H64        14.6485  -22.7102  -41.4698 H         1 UNK         0.0903 
     65 H65        15.8136  -25.8364  -41.6799 H         1 UNK         0.3096 
     66 H66        15.4077  -26.5020  -44.4197 H         1 UNK         0.1121 
     67 H67        17.5048  -28.0296  -43.9406 H         1 UNK         0.0849 
     68 H68        17.4337  -27.4256  -42.3232 H         1 UNK         0.0849 
     69 H69        14.5813  -30.5060  -44.2340 H         1 UNK         0.0865 
     70 H70        14.7875  -28.9889  -45.0699 H         1 UNK         0.0865 
     71 H71        16.8820  -31.6617  -43.4268 H         1 UNK         0.1346 
     72 H72        19.9509  -31.4631  -46.4137 H         1 UNK         0.1412 
     73 H73        16.5585  -28.8536  -46.6561 H         1 UNK         0.1426 
     74 H74        18.1254  -29.4350  -48.7126 H         1 UNK         0.0716 
     75 H75        19.7087  -30.0624  -48.3304 H         1 UNK         0.0716 
     76 H76        21.5391  -28.6369  -46.7542 H         1 UNK         0.0695 
     77 H77        20.2832  -28.6198  -45.5382 H         1 UNK         0.0695 
     78 H78        21.8265  -26.1779  -46.5508 H         1 UNK         0.0983 
     79 H79        19.2896  -26.1259  -45.4195 H         1 UNK         0.3095 
     80 H80        19.4743  -23.2183  -43.4414 H         1 UNK         0.0454 
     81 H81        19.4759  -22.1081  -45.6418 H         1 UNK         0.0851 
     82 H82        17.8350  -22.2142  -45.0257 H         1 UNK         0.0851 
     83 H83        18.3762  -23.3070  -46.2990 H         1 UNK         0.0851 
     84 H84        17.8581  -24.5578  -42.8247 H         1 UNK         0.2976 
     85 H85        20.8412  -27.3212  -43.3653 H         1 UNK         0.3116 
     86 H86        21.7778  -27.8064  -41.4560 H         1 UNK         0.0646 
     87 H87        24.2467  -26.2673  -42.4119 H         1 UNK         0.0847 
     88 H88        22.8407  -25.5749  -41.6098 H         1 UNK         0.0847 
     89 H89        23.8761  -26.7009  -40.7496 H         1 UNK         0.0847 
     90 H90        24.2370  -28.3822  -43.9592 H         1 UNK         0.3040 
     91 H91        25.7671  -29.9773  -44.3536 H         1 UNK         0.1015 
     92 H92        25.0172  -32.3270  -44.1811 H         1 UNK         0.0786 
     93 H93        23.6866  -31.3242  -44.7406 H         1 UNK         0.0786 
     94 H94        23.7354  -31.8765  -43.0681 H         1 UNK         0.0786 
     95 H95        26.6180  -28.5440  -42.3493 H         1 UNK         0.3172 
     96 H96        27.9114  -28.3175  -40.5544 H         1 UNK         0.0595 
     97 H97        28.6648  -31.2702  -40.8869 H         1 UNK         0.0839 
     98 H98        29.5720  -30.0511  -40.0077 H         1 UNK         0.0839 
     99 H99        29.4154  -29.9293  -41.7517 H         1 UNK         0.0839 
    100 H100       25.2349  -28.7581  -40.1350 H         1 UNK         0.2998 
    101 H101       23.7169  -28.8187  -38.5683 H         1 UNK         0.0822 
    102 H102       24.2276  -28.9357  -36.1764 H         1 UNK         0.0787 
    103 H103       25.4312  -27.9292  -36.9622 H         1 UNK         0.0787 
    104 H104       25.8288  -29.5812  -36.4878 H         1 UNK         0.0787 
    105 H105       24.9114  -31.4499  -39.9283 H         1 UNK         0.3055 
    106 H106       23.8743  -33.5875  -38.3076 H         1 UNK         0.1106 
    107 H107       25.5893  -33.9205  -40.1132 H         1 UNK         0.0828 
    108 H108       24.1866  -34.9550  -40.3365 H         1 UNK         0.0828 
    109 H109       24.3771  -33.5199  -41.3299 H         1 UNK         0.0828 
    110 H110       22.3799  -31.3642  -40.6181 H         1 UNK         0.2931 
    111 H111       19.8406  -32.8520  -40.6664 H         1 UNK         0.0412 
    112 H112       19.7008  -30.3509  -37.5694 H         1 UNK         0.3472 
    113 H113       21.1954  -31.0098  -38.1863 H         1 UNK         0.3472 
    114 H114       20.5502  -30.1627  -41.9165 H         1 UNK         0.0970 
    115 H115       19.0282  -30.9808  -42.1036 H         1 UNK         0.0970 
    116 H116       18.6747  -33.2618  -43.3700 H         1 UNK         0.0612 
    117 H117       19.5813  -33.5343  -44.8389 H         1 UNK         0.0612 
@<TRIPOS>BOND
     1    1    2 1    
     2    1   62 1    
     3    1   63 1    
     4    1   64 1    
     5    2    3 2    
     6    2    4 am   BACKBONE|DICT|INTERRES
     7    4    5 1    
     8    4   65 1    
     9    5    6 1    
    10    5   25 1    
    11    5   66 1    
    12    6    7 1    
    13    6   67 1    
    14    6   68 1    
    15    7    8 1    
    16    8    9 1    
    17    8   69 1    
    18    8   70 1    
    19    9   10 ar   
    20    9   14 ar   
    21   10   11 ar   
    22   10   71 1    
    23   11   12 ar   
    24   11   61 1    
    25   12   13 ar   
    26   12   72 1    
    27   13   14 ar   
    28   13   15 1    
    29   14   73 1    
    30   15   16 1    
    31   15   74 1    
    32   15   75 1    
    33   16   17 1    
    34   17   18 1    
    35   17   76 1    
    36   17   77 1    
    37   18   19 1    
    38   18   27 1    
    39   18   78 1    
    40   19   20 am   BACKBONE|DICT|INTERRES
    41   19   79 1    
    42   20   21 2    
    43   20   22 1    
    44   22   23 1    
    45   22   24 1    
    46   22   80 1    
    47   23   81 1    
    48   23   82 1    
    49   23   83 1    
    50   24   25 am   BACKBONE|DICT|INTERRES
    51   24   84 1    
    52   25   26 2    
    53   27   28 2    
    54   27   29 am   BACKBONE|DICT|INTERRES
    55   29   30 1    
    56   29   85 1    
    57   30   31 1    
    58   30   32 1    
    59   30   86 1    
    60   31   87 1    
    61   31   88 1    
    62   31   89 1    
    63   32   33 2    
    64   32   34 am   BACKBONE|DICT|INTERRES
    65   34   35 1    
    66   34   90 1    
    67   35   36 1    
    68   35   37 1    
    69   35   91 1    
    70   36   92 1    
    71   36   93 1    
    72   36   94 1    
    73   37   38 2    
    74   37   39 am   BACKBONE|DICT|INTERRES
    75   39   40 1    
    76   39   95 1    
    77   40   41 1    
    78   40   42 1    
    79   40   96 1    
    80   41   97 1    
    81   41   98 1    
    82   41   99 1    
    83   42   43 2    
    84   42   44 am   BACKBONE|DICT|INTERRES
    85   44   45 1    
    86   44  100 1    
    87   45   46 1    
    88   45   47 1    
    89   45  101 1    
    90   46  102 1    
    91   46  103 1    
    92   46  104 1    
    93   47   48 2    
    94   47   49 am   BACKBONE|DICT|INTERRES
    95   49   50 1    
    96   49  105 1    
    97   50   51 1    
    98   50   52 1    
    99   50  106 1    
   100   51  107 1    
   101   51  108 1    
   102   51  109 1    
   103   52   53 2    
   104   52   54 am   BACKBONE|DICT|INTERRES
   105   54   55 1    
   106   54  110 1    
   107   55   56 1    
   108   55   59 1    
   109   55  111 1    
   110   56   57 am   BACKBONE|DICT|INTERRES
   111   56   58 2    
   112   57  112 1    
   113   57  113 1    
   114   59   60 1    
   115   59  114 1    
   116   59  115 1    
   117   60   61 1    
   118   61  116 1    
   119   61  117 1    
@<TRIPOS>SUBSTRUCTURE
     1 UNK         1 GROUP             0       ****    0 ROOT    
