@<TRIPOS>MOLECULE
3R8
117   119    1
SMALL
USER_CHARGES


@<TRIPOS>ATOM
      1 CA         15.8947  -23.6767  -41.0340 C.3       0 UNK        -0.2013 
      2 C          15.8468  -24.4150  -42.3635 C.2       0 UNK         0.4866 
      3 O          14.7710  -24.8264  -42.7984 O.2       0 UNK        -0.5176 
      4 N          17.0025  -24.5838  -43.0122 N.am      1 UNK        -0.4884 
      5 CA         17.1668  -25.2306  -44.3123 C.3       1 UNK         0.0853 
      6 C6         17.1135  -26.7772  -44.2065 C.3       10 UNK        -0.0849 
      7 S7         16.6592  -27.5661  -45.7876 S.3       10 UNK        -0.2776 
      8 C8         16.4794  -29.3055  -45.2759 C.3       10 UNK         0.0316 
      9 C9         17.7828  -29.8694  -44.7297 C.ar      10 UNK        -0.0863 
     10 C10        17.9083  -30.1728  -43.3703 C.ar      10 UNK        -0.1009 
     11 C11        19.1114  -30.6722  -42.8630 C.ar      10 UNK        -0.0712 
     12 C12        20.1971  -30.8527  -43.7244 C.ar      10 UNK        -0.0894 
     13 C13        20.0858  -30.5465  -45.0846 C.ar      10 UNK        -0.0745 
     14 C14        18.8707  -30.0706  -45.5838 C.ar      10 UNK        -0.0972 
     15 C15        21.2836  -30.7074  -46.0116 C.3       10 UNK         0.0209 
     16 S16        21.8889  -29.1087  -46.6488 S.3       10 UNK        -0.2568 
     17 C17        22.3302  -28.2339  -45.1091 C.3       10 UNK        -0.0983 
     18 CA         22.4521  -26.6985  -45.2909 C.3       3 UNK         0.0876 
     19 N          21.2431  -26.1209  -45.8898 N.am      3 UNK        -0.4424 
     20 C          21.1951  -24.9518  -46.5403 C.2       2 UNK         0.4918 
     21 O          22.1787  -24.2387  -46.7390 O.2       2 UNK        -0.4875 
     22 CA         19.8130  -24.4813  -47.0329 C.3       2 UNK         0.0481 
     23 CB         19.6028  -24.9001  -48.4965 C.3       2 UNK        -0.1831 
     24 N          18.6732  -24.9469  -46.2305 N.am      2 UNK        -0.4498 
     25 C          18.4878  -24.7250  -44.9216 C.2       1 UNK         0.5027 
     26 O          19.3179  -24.1645  -44.1987 O.2       1 UNK        -0.4969 
     27 C          22.8148  -26.0487  -43.9357 C.2       3 UNK         0.5005 
     28 O          23.8573  -26.3923  -43.3770 O.2       3 UNK        -0.5279 
     29 N          21.9306  -25.2014  -43.3763 N.am      4 UNK        -0.4463 
     30 CA         22.0013  -24.6048  -42.0311 C.3       4 UNK         0.0283 
     31 CB         23.1671  -23.5979  -41.9415 C.3       4 UNK        -0.1875 
     32 C          22.0418  -25.6559  -40.8994 C.2       4 UNK         0.4949 
     33 O          22.5634  -25.3790  -39.8193 O.2       4 UNK        -0.5039 
     34 N          21.5223  -26.8574  -41.1974 N.am      5 UNK        -0.4663 
     35 CA         21.5661  -28.0962  -40.4121 C.3       5 UNK         0.0242 
     36 CB         20.7564  -27.9530  -39.1073 C.3       5 UNK        -0.1982 
     37 C          22.9832  -28.6576  -40.1632 C.2       5 UNK         0.5017 
     38 O          23.1206  -29.5882  -39.3676 O.2       5 UNK        -0.5012 
     39 N          24.0063  -28.1350  -40.8604 N.am      6 UNK        -0.4439 
     40 CA         25.4212  -28.4813  -40.6694 C.3       6 UNK         0.0297 
     41 CB         26.2977  -27.5047  -41.4691 C.3       6 UNK        -0.2006 
     42 C          25.7754  -29.9356  -41.0275 C.2       6 UNK         0.4892 
     43 O          26.7665  -30.4566  -40.5153 O.2       6 UNK        -0.5089 
     44 N          24.9559  -30.5682  -41.8782 N.am      7 UNK        -0.4243 
     45 CA         25.0628  -31.9815  -42.2458 C.3       7 UNK         0.0196 
     46 CB         24.2792  -32.2203  -43.5468 C.3       7 UNK        -0.2007 
     47 C          24.5860  -32.9471  -41.1415 C.2       7 UNK         0.5020 
     48 O          24.8492  -34.1435  -41.2624 O.2       7 UNK        -0.5147 
     49 N          23.8995  -32.4302  -40.1061 N.am      8 UNK        -0.4734 
     50 CA         23.3377  -33.1556  -38.9574 C.3       8 UNK         0.0238 
     51 CB         24.4641  -33.7174  -38.0632 C.3       8 UNK        -0.1912 
     52 C          22.3192  -34.2280  -39.3900 C.2       8 UNK         0.5038 
     53 O          22.5297  -35.4194  -39.1530 O.2       8 UNK        -0.5046 
     54 N          21.2456  -33.7730  -40.0494 N.am      9 UNK        -0.4200 
     55 CA         20.1764  -34.6130  -40.6151 C.3       9 UNK         0.0839 
     56 C          19.3015  -35.3956  -39.5887 C.2       9 UNK         0.5513 
     57 N          19.3470  -35.0856  -38.2984 N.am      9 UNK        -0.7519 
     58 O          18.5751  -36.3081  -39.9744 O.2       9 UNK        -0.4960 
     59 C59        19.3162  -33.8238  -41.6395 C.3       10 UNK        -0.0876 
     60 S60        18.3209  -32.4779  -40.9002 S.3       10 UNK        -0.2414 
     61 C61        19.2449  -30.9865  -41.3795 C.3       10 UNK         0.0169 
     62 H62        15.5132  -24.3145  -40.2370 H         1 UNK         0.0903 
     63 H63        16.9086  -23.3756  -40.7709 H         1 UNK         0.0903 
     64 H64        15.2758  -22.7810  -41.0796 H         1 UNK         0.0903 
     65 H65        17.8626  -24.1821  -42.6563 H         1 UNK         0.3096 
     66 H66        16.3562  -24.8799  -44.9559 H         1 UNK         0.1121 
     67 H67        16.3625  -27.0791  -43.4748 H         1 UNK         0.0849 
     68 H68        18.0604  -27.1828  -43.8442 H         1 UNK         0.0849 
     69 H69        15.6791  -29.3839  -44.5383 H         1 UNK         0.0865 
     70 H70        16.1623  -29.8985  -46.1349 H         1 UNK         0.0865 
     71 H71        17.0717  -30.0196  -42.7021 H         1 UNK         0.1346 
     72 H72        21.1323  -31.2211  -43.3315 H         1 UNK         0.1412 
     73 H73        18.7816  -29.8258  -46.6337 H         1 UNK         0.1426 
     74 H74        22.1031  -31.2203  -45.5069 H         1 UNK         0.0716 
     75 H75        21.0004  -31.3390  -46.8547 H         1 UNK         0.0716 
     76 H76        21.5836  -28.4543  -44.3454 H         1 UNK         0.0695 
     77 H77        23.2705  -28.6563  -44.7489 H         1 UNK         0.0695 
     78 H78        23.2914  -26.5066  -45.9632 H         1 UNK         0.0983 
     79 H79        20.3965  -26.6642  -45.8064 H         1 UNK         0.3095 
     80 H80        19.8111  -23.3904  -46.9890 H         1 UNK         0.0454 
     81 H81        19.5566  -25.9848  -48.6034 H         1 UNK         0.0851 
     82 H82        18.6816  -24.4821  -48.9025 H         1 UNK         0.0851 
     83 H83        20.4203  -24.5459  -49.1263 H         1 UNK         0.0851 
     84 H84        17.9558  -25.4581  -46.7276 H         1 UNK         0.2976 
     85 H85        21.0927  -24.9616  -43.8992 H         1 UNK         0.3116 
     86 H86        21.0723  -24.0492  -41.8953 H         1 UNK         0.0646 
     87 H87        24.1367  -24.0938  -41.9958 H         1 UNK         0.0847 
     88 H88        23.1198  -22.8642  -42.7460 H         1 UNK         0.0847 
     89 H89        23.1377  -23.0467  -41.0008 H         1 UNK         0.0847 
     90 H90        21.1109  -26.9477  -42.1152 H         1 UNK         0.3040 
     91 H91        21.0668  -28.8430  -41.0275 H         1 UNK         0.1015 
     92 H92        21.2307  -27.2615  -38.4104 H         1 UNK         0.0786 
     93 H93        20.6600  -28.9120  -38.5966 H         1 UNK         0.0786 
     94 H94        19.7471  -27.5918  -39.3046 H         1 UNK         0.0786 
     95 H95        23.8133  -27.4022  -41.5361 H         1 UNK         0.3172 
     96 H96        25.6471  -28.3468  -39.6095 H         1 UNK         0.0595 
     97 H97        27.3568  -27.6873  -41.2823 H         1 UNK         0.0839 
     98 H98        26.0941  -26.4694  -41.1945 H         1 UNK         0.0839 
     99 H99        26.1354  -27.6043  -42.5431 H         1 UNK         0.0839 
    100 H100       24.1788  -30.0504  -42.2600 H         1 UNK         0.2998 
    101 H101       26.1147  -32.2048  -42.4382 H         1 UNK         0.0822 
    102 H102       24.4228  -33.2407  -43.9052 H         1 UNK         0.0787 
    103 H103       23.2100  -32.0781  -43.4018 H         1 UNK         0.0787 
    104 H104       24.6074  -31.5504  -44.3420 H         1 UNK         0.0787 
    105 H105       23.7500  -31.4264  -40.0877 H         1 UNK         0.3055 
    106 H106       22.7874  -32.4230  -38.3639 H         1 UNK         0.1106 
    107 H107       25.1409  -32.9277  -37.7371 H         1 UNK         0.0828 
    108 H108       24.0532  -34.1832  -37.1666 H         1 UNK         0.0828 
    109 H109       25.0566  -34.4742  -38.5782 H         1 UNK         0.0828 
    110 H110       21.1432  -32.7795  -40.1821 H         1 UNK         0.2931 
    111 H111       20.6900  -35.3879  -41.1879 H         1 UNK         0.0412 
    112 H112       19.9372  -34.3374  -37.9732 H         1 UNK         0.3472 
    113 H113       18.7796  -35.6027  -37.6452 H         1 UNK         0.3472 
    114 H114       19.9548  -33.4223  -42.4267 H         1 UNK         0.0970 
    115 H115       18.6309  -34.5023  -42.1511 H         1 UNK         0.0970 
    116 H116       18.8654  -30.1428  -40.8013 H         1 UNK         0.0612 
    117 H117       20.2911  -31.1067  -41.0965 H         1 UNK         0.0612 
@<TRIPOS>BOND
     1    1    2 1    
     2    1   62 1    
     3    1   63 1    
     4    1   64 1    
     5    2    3 2    
     6    2    4 am   BACKBONE|DICT|INTERRES
     7    4    5 1    
     8    4   65 1    
     9    5    6 1    
    10    5   25 1    
    11    5   66 1    
    12    6    7 1    
    13    6   67 1    
    14    6   68 1    
    15    7    8 1    
    16    8    9 1    
    17    8   69 1    
    18    8   70 1    
    19    9   10 ar   
    20    9   14 ar   
    21   10   11 ar   
    22   10   71 1    
    23   11   12 ar   
    24   11   61 1    
    25   12   13 ar   
    26   12   72 1    
    27   13   14 ar   
    28   13   15 1    
    29   14   73 1    
    30   15   16 1    
    31   15   74 1    
    32   15   75 1    
    33   16   17 1    
    34   17   18 1    
    35   17   76 1    
    36   17   77 1    
    37   18   19 1    
    38   18   27 1    
    39   18   78 1    
    40   19   20 am   BACKBONE|DICT|INTERRES
    41   19   79 1    
    42   20   21 2    
    43   20   22 1    
    44   22   23 1    
    45   22   24 1    
    46   22   80 1    
    47   23   81 1    
    48   23   82 1    
    49   23   83 1    
    50   24   25 am   BACKBONE|DICT|INTERRES
    51   24   84 1    
    52   25   26 2    
    53   27   28 2    
    54   27   29 am   BACKBONE|DICT|INTERRES
    55   29   30 1    
    56   29   85 1    
    57   30   31 1    
    58   30   32 1    
    59   30   86 1    
    60   31   87 1    
    61   31   88 1    
    62   31   89 1    
    63   32   33 2    
    64   32   34 am   BACKBONE|DICT|INTERRES
    65   34   35 1    
    66   34   90 1    
    67   35   36 1    
    68   35   37 1    
    69   35   91 1    
    70   36   92 1    
    71   36   93 1    
    72   36   94 1    
    73   37   38 2    
    74   37   39 am   BACKBONE|DICT|INTERRES
    75   39   40 1    
    76   39   95 1    
    77   40   41 1    
    78   40   42 1    
    79   40   96 1    
    80   41   97 1    
    81   41   98 1    
    82   41   99 1    
    83   42   43 2    
    84   42   44 am   BACKBONE|DICT|INTERRES
    85   44   45 1    
    86   44  100 1    
    87   45   46 1    
    88   45   47 1    
    89   45  101 1    
    90   46  102 1    
    91   46  103 1    
    92   46  104 1    
    93   47   48 2    
    94   47   49 am   BACKBONE|DICT|INTERRES
    95   49   50 1    
    96   49  105 1    
    97   50   51 1    
    98   50   52 1    
    99   50  106 1    
   100   51  107 1    
   101   51  108 1    
   102   51  109 1    
   103   52   53 2    
   104   52   54 am   BACKBONE|DICT|INTERRES
   105   54   55 1    
   106   54  110 1    
   107   55   56 1    
   108   55   59 1    
   109   55  111 1    
   110   56   57 am   BACKBONE|DICT|INTERRES
   111   56   58 2    
   112   57  112 1    
   113   57  113 1    
   114   59   60 1    
   115   59  114 1    
   116   59  115 1    
   117   60   61 1    
   118   61  116 1    
   119   61  117 1    
@<TRIPOS>SUBSTRUCTURE
     1 UNK         1 GROUP             0       ****    0 ROOT    
