@<TRIPOS>MOLECULE
3R8
117   119    1
SMALL
USER_CHARGES


@<TRIPOS>ATOM
      1 CA         14.3070  -25.4616  -39.9025 C.3       0 UNK        -0.2013 
      2 C          15.5404  -25.4616  -40.7933 C.2       0 UNK         0.4866 
      3 O          16.5219  -24.7870  -40.4802 O.2       0 UNK        -0.5176 
      4 N          15.4962  -26.2054  -41.9059 N.am      1 UNK        -0.4884 
      5 CA         16.6162  -26.3792  -42.8352 C.3       1 UNK         0.0853 
      6 C6         16.1219  -26.9214  -44.1991 C.3       10 UNK        -0.0849 
      7 S7         17.3747  -26.8150  -45.5278 S.3       10 UNK        -0.2776 
      8 C8         17.1881  -28.4333  -46.3472 C.3       10 UNK         0.0316 
      9 C9         18.1425  -29.4760  -45.7810 C.ar      10 UNK        -0.0863 
     10 C10        17.8459  -30.1399  -44.5870 C.ar      10 UNK        -0.1009 
     11 C11        18.7121  -31.1123  -44.0790 C.ar      10 UNK        -0.0712 
     12 C12        19.8926  -31.4080  -44.7676 C.ar      10 UNK        -0.0894 
     13 C13        20.2055  -30.7515  -45.9625 C.ar      10 UNK        -0.0745 
     14 C14        19.3145  -29.8000  -46.4718 C.ar      10 UNK        -0.0972 
     15 C15        21.4952  -31.0979  -46.7042 C.3       10 UNK         0.0209 
     16 S16        22.4655  -29.6389  -47.2235 S.3       10 UNK        -0.2568 
     17 C17        22.6826  -28.7561  -45.6436 C.3       10 UNK        -0.0983 
     18 CA         21.7428  -27.5141  -45.5425 C.3       3 UNK         0.0876 
     19 N          20.8663  -27.5839  -44.3639 N.am      3 UNK        -0.4424 
     20 C          21.2504  -27.4925  -43.0832 C.2       2 UNK         0.4918 
     21 O          22.3985  -27.2206  -42.7349 O.2       2 UNK        -0.4875 
     22 CA         20.1471  -27.6859  -42.0339 C.3       2 UNK         0.0481 
     23 CB         20.5892  -27.3119  -40.6067 C.3       2 UNK        -0.1831 
     24 N          18.9647  -26.9183  -42.4209 N.am      2 UNK        -0.4498 
     25 C          17.6965  -27.2885  -42.2130 C.2       1 UNK         0.5027 
     26 O          17.3594  -28.3026  -41.5969 O.2       1 UNK        -0.4969 
     27 C          22.4768  -26.1583  -45.7002 C.2       3 UNK         0.5005 
     28 O          23.5433  -26.0997  -46.3148 O.2       3 UNK        -0.5279 
     29 N          21.8885  -25.0910  -45.1336 N.am      4 UNK        -0.4463 
     30 CA         22.4050  -23.7173  -45.0453 C.3       4 UNK         0.0283 
     31 CB         22.5158  -23.0765  -46.4455 C.3       4 UNK        -0.1875 
     32 C          23.7100  -23.5828  -44.2288 C.2       4 UNK         0.4949 
     33 O          24.4208  -22.5885  -44.3848 O.2       4 UNK        -0.5039 
     34 N          23.9982  -24.5607  -43.3613 N.am      5 UNK        -0.4663 
     35 CA         25.1730  -24.6052  -42.4965 C.3       5 UNK         0.0242 
     36 CB         26.4129  -25.0600  -43.2997 C.3       5 UNK        -0.1982 
     37 C          24.8286  -25.5022  -41.3022 C.2       5 UNK         0.5017 
     38 O          24.1280  -25.0511  -40.3949 O.2       5 UNK        -0.5012 
     39 N          25.2886  -26.7551  -41.3403 N.am      6 UNK        -0.4439 
     40 CA         24.9179  -27.8304  -40.4310 C.3       6 UNK         0.0297 
     41 CB         25.8801  -27.8632  -39.2309 C.3       6 UNK        -0.2006 
     42 C          24.9666  -29.1404  -41.2243 C.2       6 UNK         0.4892 
     43 O          25.7416  -29.2444  -42.1799 O.2       6 UNK        -0.5089 
     44 N          24.1603  -30.1167  -40.8026 N.am      7 UNK        -0.4243 
     45 CA         24.0664  -31.4533  -41.3796 C.3       7 UNK         0.0196 
     46 CB         23.2395  -31.4164  -42.6797 C.3       7 UNK        -0.2007 
     47 C          23.4340  -32.3838  -40.3407 C.2       7 UNK         0.5020 
     48 O          22.7939  -31.9082  -39.3981 O.2       7 UNK        -0.5147 
     49 N          23.5991  -33.6972  -40.5360 N.am      8 UNK        -0.4734 
     50 CA         23.0525  -34.7557  -39.6785 C.3       8 UNK         0.0238 
     51 CB         23.9143  -36.0226  -39.8410 C.3       8 UNK        -0.1912 
     52 C          21.5574  -35.0133  -39.9587 C.2       8 UNK         0.5038 
     53 O          21.1738  -36.1369  -40.2909 O.2       8 UNK        -0.5046 
     54 N          20.7488  -33.9544  -39.8506 N.am      9 UNK        -0.4200 
     55 CA         19.2947  -33.9583  -40.0499 C.3       9 UNK         0.0839 
     56 C          18.5472  -34.7902  -38.9730 C.2       9 UNK         0.5513 
     57 N          17.4553  -35.4447  -39.3437 N.am      9 UNK        -0.7519 
     58 O          18.9210  -34.8111  -37.8017 O.2       9 UNK        -0.4960 
     59 C59        18.7316  -32.5154  -40.1137 C.3       10 UNK        -0.0876 
     60 S60        19.4881  -31.5198  -41.4424 S.3       10 UNK        -0.2414 
     61 C61        18.3484  -31.8755  -42.8129 C.3       10 UNK         0.0169 
     62 H62        13.9199  -24.4484  -39.7974 H         1 UNK         0.0903 
     63 H63        13.5116  -26.0880  -40.3059 H         1 UNK         0.0903 
     64 H64        14.5614  -25.8338  -38.9104 H         1 UNK         0.0903 
     65 H65        14.6772  -26.7662  -42.0939 H         1 UNK         0.3096 
     66 H66        17.0500  -25.3905  -43.0040 H         1 UNK         0.1121 
     67 H67        15.7554  -27.9433  -44.0945 H         1 UNK         0.0849 
     68 H68        15.2632  -26.3369  -44.5338 H         1 UNK         0.0849 
     69 H69        16.1576  -28.7839  -46.2720 H         1 UNK         0.0865 
     70 H70        17.3743  -28.2995  -47.4140 H         1 UNK         0.0865 
     71 H71        16.9327  -29.9120  -44.0562 H         1 UNK         0.1346 
     72 H72        20.5619  -32.1597  -44.3719 H         1 UNK         0.1412 
     73 H73        19.5427  -29.3034  -47.4051 H         1 UNK         0.1426 
     74 H74        21.2439  -31.6848  -47.5884 H         1 UNK         0.0716 
     75 H75        22.1349  -31.7304  -46.0864 H         1 UNK         0.0716 
     76 H76        23.7368  -28.4997  -45.5256 H         1 UNK         0.0695 
     77 H77        22.4842  -29.4600  -44.8354 H         1 UNK         0.0695 
     78 H78        21.0517  -27.5267  -46.3861 H         1 UNK         0.0983 
     79 H79        19.9008  -27.8188  -44.5548 H         1 UNK         0.3095 
     80 H80        19.9031  -28.7480  -42.0508 H         1 UNK         0.0454 
     81 H81        20.8933  -26.2667  -40.5393 H         1 UNK         0.0851 
     82 H82        21.4360  -27.9216  -40.2909 H         1 UNK         0.0851 
     83 H83        19.7876  -27.4776  -39.8870 H         1 UNK         0.0851 
     84 H84        19.1414  -26.0652  -42.9321 H         1 UNK         0.2976 
     85 H85        21.0084  -25.2508  -44.6661 H         1 UNK         0.3116 
     86 H86        21.6537  -23.1536  -44.4903 H         1 UNK         0.0646 
     87 H87        23.3084  -23.5329  -47.0389 H         1 UNK         0.0847 
     88 H88        22.7402  -22.0116  -46.3728 H         1 UNK         0.0847 
     89 H89        21.5831  -23.1706  -47.0014 H         1 UNK         0.0847 
     90 H90        23.3555  -25.3403  -43.2605 H         1 UNK         0.3040 
     91 H91        25.3645  -23.6071  -42.0957 H         1 UNK         0.1015 
     92 H92        26.2381  -25.9967  -43.8307 H         1 UNK         0.0786 
     93 H93        27.2775  -25.1969  -42.6486 H         1 UNK         0.0786 
     94 H94        26.6915  -24.3130  -44.0433 H         1 UNK         0.0786 
     95 H95        25.8041  -27.0710  -42.1531 H         1 UNK         0.3172 
     96 H96        23.8956  -27.6745  -40.0799 H         1 UNK         0.0595 
     97 H97        25.6202  -28.6681  -38.5423 H         1 UNK         0.0839 
     98 H98        25.8428  -26.9306  -38.6677 H         1 UNK         0.0839 
     99 H99        26.9118  -28.0227  -39.5470 H         1 UNK         0.0839 
    100 H100       23.5840  -29.9871  -39.9792 H         1 UNK         0.2998 
    101 H101       25.0725  -31.8202  -41.5945 H         1 UNK         0.0822 
    102 H102       23.0586  -32.4188  -43.0691 H         1 UNK         0.0787 
    103 H103       22.2691  -30.9431  -42.5263 H         1 UNK         0.0787 
    104 H104       23.7627  -30.8612  -43.4576 H         1 UNK         0.0787 
    105 H105       24.1052  -34.0041  -41.3550 H         1 UNK         0.3055 
    106 H106       23.1272  -34.4381  -38.6356 H         1 UNK         0.1106 
    107 H107       23.5636  -36.8208  -39.1852 H         1 UNK         0.0828 
    108 H108       23.8857  -36.4038  -40.8625 H         1 UNK         0.0828 
    109 H109       24.9558  -35.8305  -39.5828 H         1 UNK         0.0828 
    110 H110       21.1662  -33.0674  -39.5907 H         1 UNK         0.2931 
    111 H111       19.1123  -34.4309  -41.0173 H         1 UNK         0.0412 
    112 H112       17.1357  -35.4278  -40.3001 H         1 UNK         0.3472 
    113 H113       16.9459  -35.9781  -38.6560 H         1 UNK         0.3472 
    114 H114       18.9043  -31.9995  -39.1672 H         1 UNK         0.0970 
    115 H115       17.6488  -32.5274  -40.2525 H         1 UNK         0.0970 
    116 H116       18.3621  -32.9457  -43.0233 H         1 UNK         0.0612 
    117 H117       17.3318  -31.6317  -42.5001 H         1 UNK         0.0612 
@<TRIPOS>BOND
     1    1    2 1    
     2    1   62 1    
     3    1   63 1    
     4    1   64 1    
     5    2    3 2    
     6    2    4 am   BACKBONE|DICT|INTERRES
     7    4    5 1    
     8    4   65 1    
     9    5    6 1    
    10    5   25 1    
    11    5   66 1    
    12    6    7 1    
    13    6   67 1    
    14    6   68 1    
    15    7    8 1    
    16    8    9 1    
    17    8   69 1    
    18    8   70 1    
    19    9   10 ar   
    20    9   14 ar   
    21   10   11 ar   
    22   10   71 1    
    23   11   12 ar   
    24   11   61 1    
    25   12   13 ar   
    26   12   72 1    
    27   13   14 ar   
    28   13   15 1    
    29   14   73 1    
    30   15   16 1    
    31   15   74 1    
    32   15   75 1    
    33   16   17 1    
    34   17   18 1    
    35   17   76 1    
    36   17   77 1    
    37   18   19 1    
    38   18   27 1    
    39   18   78 1    
    40   19   20 am   BACKBONE|DICT|INTERRES
    41   19   79 1    
    42   20   21 2    
    43   20   22 1    
    44   22   23 1    
    45   22   24 1    
    46   22   80 1    
    47   23   81 1    
    48   23   82 1    
    49   23   83 1    
    50   24   25 am   BACKBONE|DICT|INTERRES
    51   24   84 1    
    52   25   26 2    
    53   27   28 2    
    54   27   29 am   BACKBONE|DICT|INTERRES
    55   29   30 1    
    56   29   85 1    
    57   30   31 1    
    58   30   32 1    
    59   30   86 1    
    60   31   87 1    
    61   31   88 1    
    62   31   89 1    
    63   32   33 2    
    64   32   34 am   BACKBONE|DICT|INTERRES
    65   34   35 1    
    66   34   90 1    
    67   35   36 1    
    68   35   37 1    
    69   35   91 1    
    70   36   92 1    
    71   36   93 1    
    72   36   94 1    
    73   37   38 2    
    74   37   39 am   BACKBONE|DICT|INTERRES
    75   39   40 1    
    76   39   95 1    
    77   40   41 1    
    78   40   42 1    
    79   40   96 1    
    80   41   97 1    
    81   41   98 1    
    82   41   99 1    
    83   42   43 2    
    84   42   44 am   BACKBONE|DICT|INTERRES
    85   44   45 1    
    86   44  100 1    
    87   45   46 1    
    88   45   47 1    
    89   45  101 1    
    90   46  102 1    
    91   46  103 1    
    92   46  104 1    
    93   47   48 2    
    94   47   49 am   BACKBONE|DICT|INTERRES
    95   49   50 1    
    96   49  105 1    
    97   50   51 1    
    98   50   52 1    
    99   50  106 1    
   100   51  107 1    
   101   51  108 1    
   102   51  109 1    
   103   52   53 2    
   104   52   54 am   BACKBONE|DICT|INTERRES
   105   54   55 1    
   106   54  110 1    
   107   55   56 1    
   108   55   59 1    
   109   55  111 1    
   110   56   57 am   BACKBONE|DICT|INTERRES
   111   56   58 2    
   112   57  112 1    
   113   57  113 1    
   114   59   60 1    
   115   59  114 1    
   116   59  115 1    
   117   60   61 1    
   118   61  116 1    
   119   61  117 1    
@<TRIPOS>SUBSTRUCTURE
     1 UNK         1 GROUP             0       ****    0 ROOT    
