@<TRIPOS>MOLECULE
3R8
117   119    1
SMALL
USER_CHARGES


@<TRIPOS>ATOM
      1 CA         13.3867  -21.5960  -45.9422 C.3       0 UNK        -0.2013 
      2 C          14.0835  -22.9118  -46.2552 C.2       0 UNK         0.4866 
      3 O          14.3972  -23.1780  -47.4159 O.2       0 UNK        -0.5176 
      4 N          14.3233  -23.7408  -45.2311 N.am      1 UNK        -0.4884 
      5 CA         15.0417  -25.0141  -45.3376 C.3       1 UNK         0.0853 
      6 C6         14.7587  -25.9265  -44.1077 C.3       10 UNK        -0.0849 
      7 S7         14.5819  -27.7010  -44.5114 S.3       10 UNK        -0.2776 
      8 C8         16.2900  -28.2751  -44.7845 C.3       10 UNK         0.0316 
      9 C9         17.0141  -28.7269  -43.5217 C.ar      10 UNK        -0.0863 
     10 C10        17.3269  -30.0793  -43.3490 C.ar      10 UNK        -0.1009 
     11 C11        18.1300  -30.4949  -42.2827 C.ar      10 UNK        -0.0712 
     12 C12        18.5931  -29.5529  -41.3612 C.ar      10 UNK        -0.0894 
     13 C13        18.2760  -28.2008  -41.5131 C.ar      10 UNK        -0.0745 
     14 C14        17.4780  -27.7952  -42.5873 C.ar      10 UNK        -0.0972 
     15 C15        18.8526  -27.1746  -40.5504 C.3       10 UNK         0.0209 
     16 S16        20.5758  -26.7671  -40.9816 S.3       10 UNK        -0.2568 
     17 C17        20.3634  -25.7000  -42.4486 C.3       10 UNK        -0.0983 
     18 CA         20.3862  -26.4665  -43.7969 C.3       3 UNK         0.0876 
     19 N          19.7988  -25.6522  -44.8595 N.am      3 UNK        -0.4424 
     20 C          19.3472  -26.1228  -46.0260 C.2       2 UNK         0.4918 
     21 O          19.4393  -27.2998  -46.3784 O.2       2 UNK        -0.4875 
     22 CA         18.5783  -25.1208  -46.9061 C.3       2 UNK         0.0481 
     23 CB         18.8129  -25.3794  -48.4047 C.3       2 UNK        -0.1831 
     24 N          17.1411  -25.1948  -46.6236 N.am      2 UNK        -0.4498 
     25 C          16.5500  -24.7304  -45.5125 C.2       1 UNK         0.5027 
     26 O          17.1466  -24.1026  -44.6340 O.2       1 UNK        -0.4969 
     27 C          21.7893  -26.9920  -44.1513 C.2       3 UNK         0.5005 
     28 O          22.5872  -26.2768  -44.7619 O.2       3 UNK        -0.5279 
     29 N          22.0663  -28.2240  -43.7030 N.am      4 UNK        -0.4463 
     30 CA         23.3696  -28.8886  -43.7746 C.3       4 UNK         0.0283 
     31 CB         23.1409  -30.4076  -43.7165 C.3       4 UNK        -0.1875 
     32 C          24.3372  -28.4445  -42.6582 C.2       4 UNK         0.4949 
     33 O          25.4954  -28.8634  -42.6709 O.2       4 UNK        -0.5039 
     34 N          23.8518  -27.6271  -41.7105 N.am      5 UNK        -0.4663 
     35 CA         24.5629  -27.0826  -40.5507 C.3       5 UNK         0.0242 
     36 CB         25.6446  -26.0729  -41.0008 C.3       5 UNK        -0.1982 
     37 C          25.0727  -28.2036  -39.6260 C.2       5 UNK         0.5017 
     38 O          24.2765  -29.0586  -39.2338 O.2       5 UNK        -0.5012 
     39 N          26.3739  -28.1939  -39.3036 N.am      6 UNK        -0.4439 
     40 CA         27.0454  -29.1262  -38.3903 C.3       6 UNK         0.0297 
     41 CB         28.5100  -28.6913  -38.2182 C.3       6 UNK        -0.2006 
     42 C          26.9726  -30.6113  -38.7950 C.2       6 UNK         0.4892 
     43 O          27.1239  -31.4702  -37.9254 O.2       6 UNK        -0.5089 
     44 N          26.7348  -30.8952  -40.0843 N.am      7 UNK        -0.4243 
     45 CA         26.5125  -32.2493  -40.5977 C.3       7 UNK         0.0196 
     46 CB         26.6773  -32.2476  -42.1253 C.3       7 UNK        -0.2007 
     47 C          25.1430  -32.8316  -40.2008 C.2       7 UNK         0.5020 
     48 O          24.9990  -34.0545  -40.1932 O.2       7 UNK        -0.5147 
     49 N          24.1627  -31.9621  -39.8994 N.am      8 UNK        -0.4734 
     50 CA         22.8068  -32.2683  -39.4120 C.3       8 UNK         0.0238 
     51 CB         22.8786  -32.7604  -37.9515 C.3       8 UNK        -0.1912 
     52 C          21.9858  -33.2233  -40.3071 C.2       8 UNK         0.5038 
     53 O          21.0727  -33.8859  -39.8116 O.2       8 UNK        -0.5046 
     54 N          22.3332  -33.2818  -41.5996 N.am      9 UNK        -0.4200 
     55 CA         21.8075  -34.2171  -42.6089 C.3       9 UNK         0.0839 
     56 C          22.2145  -35.7044  -42.3717 C.2       9 UNK         0.5513 
     57 N          23.2351  -35.9949  -41.5724 N.am      9 UNK        -0.7519 
     58 O          21.6182  -36.6133  -42.9443 O.2       9 UNK        -0.4960 
     59 C59        20.2861  -34.0451  -42.8915 C.3       10 UNK        -0.0876 
     60 S60        19.8520  -32.3386  -43.3680 S.3       10 UNK        -0.2414 
     61 C61        18.5460  -31.9517  -42.1625 C.3       10 UNK         0.0169 
     62 H62        14.0204  -20.7582  -46.2317 H         1 UNK         0.0903 
     63 H63        12.4524  -21.5248  -46.4985 H         1 UNK         0.0903 
     64 H64        13.1577  -21.4972  -44.8813 H         1 UNK         0.0903 
     65 H65        14.0770  -23.4526  -44.2944 H         1 UNK         0.3096 
     66 H66        14.6715  -25.5177  -46.2339 H         1 UNK         0.1121 
     67 H67        15.4714  -25.7749  -43.2989 H         1 UNK         0.0849 
     68 H68        13.7985  -25.6510  -43.6682 H         1 UNK         0.0849 
     69 H69        16.2486  -29.0984  -45.4995 H         1 UNK         0.0865 
     70 H70        16.8782  -27.5068  -45.2758 H         1 UNK         0.0865 
     71 H71        16.9962  -30.8081  -44.0767 H         1 UNK         0.1346 
     72 H72        19.2315  -29.8648  -40.5457 H         1 UNK         0.1412 
     73 H73        17.2870  -26.7427  -42.7290 H         1 UNK         0.1426 
     74 H74        18.8291  -27.5750  -39.5358 H         1 UNK         0.0716 
     75 H75        18.2458  -26.2679  -40.5335 H         1 UNK         0.0716 
     76 H76        19.4183  -25.1657  -42.3371 H         1 UNK         0.0695 
     77 H77        21.1370  -24.9297  -42.4316 H         1 UNK         0.0695 
     78 H78        19.7488  -27.3446  -43.7104 H         1 UNK         0.0983 
     79 H79        19.6537  -24.6753  -44.6471 H         1 UNK         0.3095 
     80 H80        18.9317  -24.1119  -46.6821 H         1 UNK         0.0454 
     81 H81        18.4448  -26.3588  -48.7132 H         1 UNK         0.0851 
     82 H82        18.3177  -24.6271  -49.0188 H         1 UNK         0.0851 
     83 H83        19.8765  -25.3423  -48.6434 H         1 UNK         0.0851 
     84 H84        16.5804  -25.6905  -47.3020 H         1 UNK         0.2976 
     85 H85        21.3418  -28.7261  -43.2079 H         1 UNK         0.3116 
     86 H86        23.8374  -28.6461  -44.7310 H         1 UNK         0.0646 
     87 H87        24.0765  -30.9509  -43.8476 H         1 UNK         0.0847 
     88 H88        22.4671  -30.7395  -44.5068 H         1 UNK         0.0847 
     89 H89        22.7111  -30.7097  -42.7615 H         1 UNK         0.0847 
     90 H90        22.8707  -27.3877  -41.7621 H         1 UNK         0.3040 
     91 H91        23.8219  -26.5328  -39.9678 H         1 UNK         0.1015 
     92 H92        25.2090  -25.2922  -41.6248 H         1 UNK         0.0786 
     93 H93        26.4393  -26.5454  -41.5794 H         1 UNK         0.0786 
     94 H94        26.1020  -25.5722  -40.1463 H         1 UNK         0.0786 
     95 H95        26.9475  -27.4638  -39.7009 H         1 UNK         0.3172 
     96 H96        26.5494  -29.0380  -37.4215 H         1 UNK         0.0595 
     97 H97        28.5818  -27.6776  -37.8233 H         1 UNK         0.0839 
     98 H98        29.0551  -28.7255  -39.1624 H         1 UNK         0.0839 
     99 H99        29.0325  -29.3449  -37.5179 H         1 UNK         0.0839 
    100 H100       26.6196  -30.1307  -40.7370 H         1 UNK         0.2998 
    101 H101       27.2769  -32.9060  -40.1762 H         1 UNK         0.0822 
    102 H102       27.6802  -31.9328  -42.4144 H         1 UNK         0.0787 
    103 H103       26.5199  -33.2451  -42.5384 H         1 UNK         0.0787 
    104 H104       25.9663  -31.5774  -42.6066 H         1 UNK         0.0787 
    105 H105       24.3906  -30.9720  -39.9065 H         1 UNK         0.3055 
    106 H106       22.2641  -31.3213  -39.4146 H         1 UNK         0.1106 
    107 H107       23.3647  -33.7339  -37.8790 H         1 UNK         0.0828 
    108 H108       23.4333  -32.0611  -37.3256 H         1 UNK         0.0828 
    109 H109       21.8828  -32.8593  -37.5175 H         1 UNK         0.0828 
    110 H110       23.1170  -32.7209  -41.8944 H         1 UNK         0.2931 
    111 H111       22.3260  -33.9459  -43.5294 H         1 UNK         0.0412 
    112 H112       23.4933  -36.9594  -41.4371 H         1 UNK         0.3472 
    113 H113       23.7581  -35.2636  -41.0996 H         1 UNK         0.3472 
    114 H114       19.6976  -34.3581  -42.0279 H         1 UNK         0.0970 
    115 H115       19.9767  -34.6949  -43.7120 H         1 UNK         0.0970 
    116 H116       17.6858  -32.6002  -42.3348 H         1 UNK         0.0612 
    117 H117       18.9064  -32.1658  -41.1549 H         1 UNK         0.0612 
@<TRIPOS>BOND
     1    1    2 1    
     2    1   62 1    
     3    1   63 1    
     4    1   64 1    
     5    2    3 2    
     6    2    4 am   BACKBONE|DICT|INTERRES
     7    4    5 1    
     8    4   65 1    
     9    5    6 1    
    10    5   25 1    
    11    5   66 1    
    12    6    7 1    
    13    6   67 1    
    14    6   68 1    
    15    7    8 1    
    16    8    9 1    
    17    8   69 1    
    18    8   70 1    
    19    9   10 ar   
    20    9   14 ar   
    21   10   11 ar   
    22   10   71 1    
    23   11   12 ar   
    24   11   61 1    
    25   12   13 ar   
    26   12   72 1    
    27   13   14 ar   
    28   13   15 1    
    29   14   73 1    
    30   15   16 1    
    31   15   74 1    
    32   15   75 1    
    33   16   17 1    
    34   17   18 1    
    35   17   76 1    
    36   17   77 1    
    37   18   19 1    
    38   18   27 1    
    39   18   78 1    
    40   19   20 am   BACKBONE|DICT|INTERRES
    41   19   79 1    
    42   20   21 2    
    43   20   22 1    
    44   22   23 1    
    45   22   24 1    
    46   22   80 1    
    47   23   81 1    
    48   23   82 1    
    49   23   83 1    
    50   24   25 am   BACKBONE|DICT|INTERRES
    51   24   84 1    
    52   25   26 2    
    53   27   28 2    
    54   27   29 am   BACKBONE|DICT|INTERRES
    55   29   30 1    
    56   29   85 1    
    57   30   31 1    
    58   30   32 1    
    59   30   86 1    
    60   31   87 1    
    61   31   88 1    
    62   31   89 1    
    63   32   33 2    
    64   32   34 am   BACKBONE|DICT|INTERRES
    65   34   35 1    
    66   34   90 1    
    67   35   36 1    
    68   35   37 1    
    69   35   91 1    
    70   36   92 1    
    71   36   93 1    
    72   36   94 1    
    73   37   38 2    
    74   37   39 am   BACKBONE|DICT|INTERRES
    75   39   40 1    
    76   39   95 1    
    77   40   41 1    
    78   40   42 1    
    79   40   96 1    
    80   41   97 1    
    81   41   98 1    
    82   41   99 1    
    83   42   43 2    
    84   42   44 am   BACKBONE|DICT|INTERRES
    85   44   45 1    
    86   44  100 1    
    87   45   46 1    
    88   45   47 1    
    89   45  101 1    
    90   46  102 1    
    91   46  103 1    
    92   46  104 1    
    93   47   48 2    
    94   47   49 am   BACKBONE|DICT|INTERRES
    95   49   50 1    
    96   49  105 1    
    97   50   51 1    
    98   50   52 1    
    99   50  106 1    
   100   51  107 1    
   101   51  108 1    
   102   51  109 1    
   103   52   53 2    
   104   52   54 am   BACKBONE|DICT|INTERRES
   105   54   55 1    
   106   54  110 1    
   107   55   56 1    
   108   55   59 1    
   109   55  111 1    
   110   56   57 am   BACKBONE|DICT|INTERRES
   111   56   58 2    
   112   57  112 1    
   113   57  113 1    
   114   59   60 1    
   115   59  114 1    
   116   59  115 1    
   117   60   61 1    
   118   61  116 1    
   119   61  117 1    
@<TRIPOS>SUBSTRUCTURE
     1 UNK         1 GROUP             0       ****    0 ROOT    
