@<TRIPOS>MOLECULE
3R8
117   119    1
SMALL
USER_CHARGES


@<TRIPOS>ATOM
      1 CA         17.7981  -28.3946  -41.9088 C.3       0 UNK        -0.2013 
      2 C          16.8121  -27.6014  -42.7484 C.2       0 UNK         0.4866 
      3 O          15.9741  -26.8882  -42.1971 O.2       0 UNK        -0.5176 
      4 N          16.8976  -27.7321  -44.0789 N.am      1 UNK        -0.4884 
      5 CA         15.9631  -27.1267  -45.0383 C.3       1 UNK         0.0853 
      6 C6         16.0857  -27.7618  -46.4449 C.3       10 UNK        -0.0849 
      7 S7         15.8098  -29.5673  -46.4044 S.3       10 UNK        -0.2776 
      8 C8         17.3281  -30.2180  -47.1738 C.3       10 UNK         0.0316 
      9 C9         18.5704  -30.0001  -46.3182 C.ar      10 UNK        -0.0863 
     10 C10        18.7819  -30.7685  -45.1700 C.ar      10 UNK        -0.1009 
     11 C11        19.9540  -30.6238  -44.4199 C.ar      10 UNK        -0.0712 
     12 C12        20.9105  -29.6849  -44.8233 C.ar      10 UNK        -0.0894 
     13 C13        20.7106  -28.8977  -45.9623 C.ar      10 UNK        -0.0745 
     14 C14        19.5389  -29.0720  -46.7094 C.ar      10 UNK        -0.0972 
     15 C15        21.7941  -27.9111  -46.3997 C.3       10 UNK         0.0209 
     16 S16        21.1188  -26.3664  -47.0983 S.3       10 UNK        -0.2568 
     17 C17        22.1269  -25.0580  -46.3070 C.3       10 UNK        -0.0983 
     18 CA         21.4487  -24.3668  -45.0882 C.3       3 UNK         0.0876 
     19 N          19.9969  -24.2492  -45.2571 N.am      3 UNK        -0.4424 
     20 C          19.1562  -23.5333  -44.5000 C.2       2 UNK         0.4918 
     21 O          19.5004  -22.8246  -43.5549 O.2       2 UNK        -0.4875 
     22 CA         17.6723  -23.6594  -44.8617 C.3       2 UNK         0.0481 
     23 CB         17.3798  -22.9288  -46.1901 C.3       2 UNK        -0.1831 
     24 N          17.3112  -25.0786  -44.9166 N.am      2 UNK        -0.4498 
     25 C          16.0900  -25.5905  -45.1184 C.2       1 UNK         0.5027 
     26 O          15.0856  -24.9144  -45.3450 O.2       1 UNK        -0.4969 
     27 C          21.8328  -25.0384  -43.7553 C.2       3 UNK         0.5005 
     28 O          22.6831  -24.5105  -43.0359 O.2       3 UNK        -0.5279 
     29 N          21.1751  -26.1675  -43.4511 N.am      4 UNK        -0.4463 
     30 CA         21.3556  -27.0028  -42.2588 C.3       4 UNK         0.0283 
     31 CB         20.8767  -26.2524  -40.9954 C.3       4 UNK        -0.1875 
     32 C          22.7868  -27.5728  -42.1366 C.2       4 UNK         0.4949 
     33 O          23.4598  -27.7548  -43.1529 O.2       4 UNK        -0.5039 
     34 N          23.2108  -27.8849  -40.9036 N.am      5 UNK        -0.4663 
     35 CA         24.5408  -28.3432  -40.4652 C.3       5 UNK         0.0242 
     36 CB         25.6154  -27.2818  -40.7704 C.3       5 UNK        -0.1982 
     37 C          24.9943  -29.7293  -40.9648 C.2       5 UNK         0.5017 
     38 O          25.6931  -30.4188  -40.2205 O.2       5 UNK        -0.5012 
     39 N          24.6108  -30.1212  -42.1864 N.am      6 UNK        -0.4439 
     40 CA         24.9317  -31.4032  -42.8219 C.3       6 UNK         0.0297 
     41 CB         24.3321  -31.4397  -44.2368 C.3       6 UNK        -0.2006 
     42 C          24.4294  -32.5899  -41.9837 C.2       6 UNK         0.4892 
     43 O          23.2283  -32.6897  -41.7363 O.2       6 UNK        -0.5089 
     44 N          25.3639  -33.4279  -41.5125 N.am      7 UNK        -0.4243 
     45 CA         25.1416  -34.5402  -40.5748 C.3       7 UNK         0.0196 
     46 CB         24.3452  -35.6754  -41.2541 C.3       7 UNK        -0.2007 
     47 C          24.5179  -34.0979  -39.2305 C.2       7 UNK         0.5020 
     48 O          23.8202  -34.8869  -38.5918 O.2       7 UNK        -0.5147 
     49 N          24.7822  -32.8433  -38.8318 N.am      8 UNK        -0.4734 
     50 CA         24.2750  -32.1525  -37.6418 C.3       8 UNK         0.0238 
     51 CB         24.7886  -32.8238  -36.3489 C.3       8 UNK        -0.1912 
     52 C          22.7466  -31.9428  -37.6486 C.2       8 UNK         0.5038 
     53 O          22.1371  -31.9355  -36.5773 O.2       8 UNK        -0.5046 
     54 N          22.1490  -31.7537  -38.8365 N.am      9 UNK        -0.4200 
     55 CA         20.7083  -31.4859  -39.0010 C.3       9 UNK         0.0839 
     56 C          20.2152  -30.0899  -38.5077 C.2       9 UNK         0.5513 
     57 N          21.0907  -29.1690  -38.1191 N.am      9 UNK        -0.7519 
     58 O          19.0124  -29.8451  -38.4663 O.2       9 UNK        -0.4960 
     59 C59        20.2122  -31.8269  -40.4315 C.3       10 UNK        -0.0876 
     60 S60        20.6838  -30.6188  -41.7156 S.3       10 UNK        -0.2414 
     61 C61        20.1970  -31.5292  -43.2152 C.3       10 UNK         0.0169 
     62 H62        17.2742  -29.1462  -41.3188 H         1 UNK         0.0903 
     63 H63        18.5266  -28.9053  -42.5345 H         1 UNK         0.0903 
     64 H64        18.3319  -27.7389  -41.2228 H         1 UNK         0.0903 
     65 H65        17.5722  -28.3716  -44.4778 H         1 UNK         0.3096 
     66 H66        14.9532  -27.3295  -44.6735 H         1 UNK         0.1121 
     67 H67        15.3457  -27.3308  -47.1224 H         1 UNK         0.0849 
     68 H68        17.0600  -27.5413  -46.8841 H         1 UNK         0.0849 
     69 H69        17.2003  -31.2877  -47.3460 H         1 UNK         0.0865 
     70 H70        17.4505  -29.7696  -48.1612 H         1 UNK         0.0865 
     71 H71        18.0408  -31.5006  -44.8785 H         1 UNK         0.1346 
     72 H72        21.8226  -29.5790  -44.2540 H         1 UNK         0.1412 
     73 H73        19.3867  -28.4967  -47.6122 H         1 UNK         0.1426 
     74 H74        22.4227  -28.3899  -47.1513 H         1 UNK         0.0716 
     75 H75        22.4484  -27.6756  -45.5611 H         1 UNK         0.0716 
     76 H76        22.3011  -24.3041  -47.0761 H         1 UNK         0.0695 
     77 H77        23.1195  -25.4416  -46.0610 H         1 UNK         0.0695 
     78 H78        21.8403  -23.3483  -45.0328 H         1 UNK         0.0983 
     79 H79        19.6229  -24.7711  -46.0374 H         1 UNK         0.3095 
     80 H80        17.0906  -23.1910  -44.0654 H         1 UNK         0.0454 
     81 H81        17.7736  -21.9117  -46.1712 H         1 UNK         0.0851 
     82 H82        16.3100  -22.8460  -46.3791 H         1 UNK         0.0851 
     83 H83        17.8300  -23.4372  -47.0431 H         1 UNK         0.0851 
     84 H84        18.0463  -25.7279  -44.6767 H         1 UNK         0.2976 
     85 H85        20.5531  -26.5390  -44.1534 H         1 UNK         0.3116 
     86 H86        20.6979  -27.8567  -42.4055 H         1 UNK         0.0646 
     87 H87        21.5799  -25.4746  -40.6946 H         1 UNK         0.0847 
     88 H88        19.9118  -25.7736  -41.1624 H         1 UNK         0.0847 
     89 H89        20.7487  -26.9314  -40.1519 H         1 UNK         0.0847 
     90 H90        22.5465  -27.7501  -40.1542 H         1 UNK         0.3040 
     91 H91        24.4730  -28.4280  -39.3793 H         1 UNK         0.1015 
     92 H92        26.5816  -27.5744  -40.3568 H         1 UNK         0.0786 
     93 H93        25.3554  -26.3173  -40.3340 H         1 UNK         0.0786 
     94 H94        25.7530  -27.1377  -41.8425 H         1 UNK         0.0786 
     95 H95        24.0707  -29.4505  -42.7268 H         1 UNK         0.3172 
     96 H96        26.0184  -31.4599  -42.9109 H         1 UNK         0.0595 
     97 H97        23.2427  -31.4349  -44.2114 H         1 UNK         0.0839 
     98 H98        24.6371  -32.3447  -44.7635 H         1 UNK         0.0839 
     99 H99        24.6599  -30.5890  -44.8346 H         1 UNK         0.0839 
    100 H100       26.3296  -33.2452  -41.7502 H         1 UNK         0.2998 
    101 H101       26.1292  -34.9332  -40.3289 H         1 UNK         0.0822 
    102 H102       24.3020  -36.5599  -40.6174 H         1 UNK         0.0787 
    103 H103       24.8074  -35.9775  -42.1938 H         1 UNK         0.0787 
    104 H104       23.3177  -35.3778  -41.4659 H         1 UNK         0.0787 
    105 H105       25.3333  -32.2562  -39.4520 H         1 UNK         0.3055 
    106 H106       24.7051  -31.1502  -37.6748 H         1 UNK         0.1106 
    107 H107       25.8715  -32.9454  -36.3674 H         1 UNK         0.0828 
    108 H108       24.5482  -32.2208  -35.4724 H         1 UNK         0.0828 
    109 H109       24.3424  -33.8069  -36.1963 H         1 UNK         0.0828 
    110 H110       22.6911  -31.8151  -39.6895 H         1 UNK         0.2931 
    111 H111       20.2042  -32.1982  -38.3447 H         1 UNK         0.0412 
    112 H112       20.7503  -28.2859  -37.7732 H         1 UNK         0.3472 
    113 H113       22.0728  -29.3827  -38.0904 H         1 UNK         0.3472 
    114 H114       20.5797  -32.8120  -40.7243 H         1 UNK         0.0970 
    115 H115       19.1235  -31.9060  -40.4322 H         1 UNK         0.0970 
    116 H116       19.2980  -32.1071  -42.9958 H         1 UNK         0.0612 
    117 H117       20.9769  -32.2514  -43.4593 H         1 UNK         0.0612 
@<TRIPOS>BOND
     1    1    2 1    
     2    1   62 1    
     3    1   63 1    
     4    1   64 1    
     5    2    3 2    
     6    2    4 am   BACKBONE|DICT|INTERRES
     7    4    5 1    
     8    4   65 1    
     9    5    6 1    
    10    5   25 1    
    11    5   66 1    
    12    6    7 1    
    13    6   67 1    
    14    6   68 1    
    15    7    8 1    
    16    8    9 1    
    17    8   69 1    
    18    8   70 1    
    19    9   10 ar   
    20    9   14 ar   
    21   10   11 ar   
    22   10   71 1    
    23   11   12 ar   
    24   11   61 1    
    25   12   13 ar   
    26   12   72 1    
    27   13   14 ar   
    28   13   15 1    
    29   14   73 1    
    30   15   16 1    
    31   15   74 1    
    32   15   75 1    
    33   16   17 1    
    34   17   18 1    
    35   17   76 1    
    36   17   77 1    
    37   18   19 1    
    38   18   27 1    
    39   18   78 1    
    40   19   20 am   BACKBONE|DICT|INTERRES
    41   19   79 1    
    42   20   21 2    
    43   20   22 1    
    44   22   23 1    
    45   22   24 1    
    46   22   80 1    
    47   23   81 1    
    48   23   82 1    
    49   23   83 1    
    50   24   25 am   BACKBONE|DICT|INTERRES
    51   24   84 1    
    52   25   26 2    
    53   27   28 2    
    54   27   29 am   BACKBONE|DICT|INTERRES
    55   29   30 1    
    56   29   85 1    
    57   30   31 1    
    58   30   32 1    
    59   30   86 1    
    60   31   87 1    
    61   31   88 1    
    62   31   89 1    
    63   32   33 2    
    64   32   34 am   BACKBONE|DICT|INTERRES
    65   34   35 1    
    66   34   90 1    
    67   35   36 1    
    68   35   37 1    
    69   35   91 1    
    70   36   92 1    
    71   36   93 1    
    72   36   94 1    
    73   37   38 2    
    74   37   39 am   BACKBONE|DICT|INTERRES
    75   39   40 1    
    76   39   95 1    
    77   40   41 1    
    78   40   42 1    
    79   40   96 1    
    80   41   97 1    
    81   41   98 1    
    82   41   99 1    
    83   42   43 2    
    84   42   44 am   BACKBONE|DICT|INTERRES
    85   44   45 1    
    86   44  100 1    
    87   45   46 1    
    88   45   47 1    
    89   45  101 1    
    90   46  102 1    
    91   46  103 1    
    92   46  104 1    
    93   47   48 2    
    94   47   49 am   BACKBONE|DICT|INTERRES
    95   49   50 1    
    96   49  105 1    
    97   50   51 1    
    98   50   52 1    
    99   50  106 1    
   100   51  107 1    
   101   51  108 1    
   102   51  109 1    
   103   52   53 2    
   104   52   54 am   BACKBONE|DICT|INTERRES
   105   54   55 1    
   106   54  110 1    
   107   55   56 1    
   108   55   59 1    
   109   55  111 1    
   110   56   57 am   BACKBONE|DICT|INTERRES
   111   56   58 2    
   112   57  112 1    
   113   57  113 1    
   114   59   60 1    
   115   59  114 1    
   116   59  115 1    
   117   60   61 1    
   118   61  116 1    
   119   61  117 1    
@<TRIPOS>SUBSTRUCTURE
     1 UNK         1 GROUP             0       ****    0 ROOT    
