@<TRIPOS>MOLECULE
3R8
117   119    1
SMALL
USER_CHARGES


@<TRIPOS>ATOM
      1 CA         16.4083  -24.7041  -42.4328 C.3       0 UNK        -0.2013 
      2 C          17.4033  -25.6772  -43.0457 C.2       0 UNK         0.4866 
      3 O          18.0440  -26.4314  -42.3145 O.2       0 UNK        -0.5176 
      4 N          17.5323  -25.6664  -44.3807 N.am      1 UNK        -0.4884 
      5 CA         18.4473  -26.5008  -45.1784 C.3       1 UNK         0.0853 
      6 C6         18.0918  -28.0173  -45.1356 C.3       10 UNK        -0.0849 
      7 S7         16.3750  -28.3873  -45.6335 S.3       10 UNK        -0.2776 
      8 C8         15.5994  -28.8469  -44.0472 C.3       10 UNK         0.0316 
      9 C9         16.2477  -30.0692  -43.4091 C.ar      10 UNK        -0.0863 
     10 C10        16.0890  -31.3326  -43.9851 C.ar      10 UNK        -0.1009 
     11 C11        16.6728  -32.4605  -43.4002 C.ar      10 UNK        -0.0712 
     12 C12        17.4278  -32.3159  -42.2316 C.ar      10 UNK        -0.0894 
     13 C13        17.5859  -31.0572  -41.6393 C.ar      10 UNK        -0.0745 
     14 C14        16.9906  -29.9395  -42.2313 C.ar      10 UNK        -0.0972 
     15 C15        18.3756  -30.9119  -40.3461 C.3       10 UNK         0.0209 
     16 S16        20.0916  -30.3899  -40.6505 S.3       10 UNK        -0.2568 
     17 C17        20.0002  -28.5964  -40.3577 C.3       10 UNK        -0.0983 
     18 CA         21.2488  -27.8423  -40.8831 C.3       3 UNK         0.0876 
     19 N          21.3094  -27.7911  -42.3538 N.am      3 UNK        -0.4424 
     20 C          22.3618  -27.3489  -43.0648 C.2       2 UNK         0.4918 
     21 O          23.4247  -27.0145  -42.5470 O.2       2 UNK        -0.4875 
     22 CA         22.2077  -27.1660  -44.5877 C.3       2 UNK         0.0481 
     23 CB         23.0538  -28.1825  -45.3700 C.3       2 UNK        -0.1831 
     24 N          20.8153  -27.2035  -45.0419 N.am      2 UNK        -0.4498 
     25 C          19.9272  -26.2256  -44.8077 C.2       1 UNK         0.5027 
     26 O          20.2455  -25.1504  -44.2919 O.2       1 UNK        -0.4969 
     27 C          21.3542  -26.4466  -40.2279 C.2       3 UNK         0.5005 
     28 O          21.7541  -26.3599  -39.0663 O.2       3 UNK        -0.5279 
     29 N          21.0397  -25.3784  -40.9766 N.am      4 UNK        -0.4463 
     30 CA         21.2671  -23.9900  -40.5705 C.3       4 UNK         0.0283 
     31 CB         20.4983  -23.0575  -41.5200 C.3       4 UNK        -0.1875 
     32 C          22.7593  -23.5994  -40.5259 C.2       4 UNK         0.4949 
     33 O          23.0995  -22.6446  -39.8269 O.2       4 UNK        -0.5039 
     34 N          23.6134  -24.3189  -41.2688 N.am      5 UNK        -0.4663 
     35 CA         25.0550  -24.0755  -41.3630 C.3       5 UNK         0.0242 
     36 CB         25.4548  -23.9974  -42.8465 C.3       5 UNK        -0.1982 
     37 C          25.8706  -25.1632  -40.6469 C.2       5 UNK         0.5017 
     38 O          26.8195  -24.8308  -39.9356 O.2       5 UNK        -0.5012 
     39 N          25.5028  -26.4332  -40.8524 N.am      6 UNK        -0.4439 
     40 CA         26.1795  -27.6122  -40.3223 C.3       6 UNK         0.0297 
     41 CB         27.3572  -28.0063  -41.2388 C.3       6 UNK        -0.2006 
     42 C          25.1465  -28.7300  -40.1266 C.2       6 UNK         0.4892 
     43 O          24.5303  -28.7927  -39.0627 O.2       6 UNK        -0.5089 
     44 N          24.9657  -29.5836  -41.1414 N.am      7 UNK        -0.4243 
     45 CA         24.0276  -30.7030  -41.1469 C.3       7 UNK         0.0196 
     46 CB         24.7025  -31.9527  -40.5546 C.3       7 UNK        -0.2007 
     47 C          23.5580  -30.9636  -42.5820 C.2       7 UNK         0.5020 
     48 O          24.2999  -30.6888  -43.5273 O.2       7 UNK        -0.5147 
     49 N          22.3484  -31.5127  -42.7069 N.am      8 UNK        -0.4734 
     50 CA         21.7104  -31.9535  -43.9443 C.3       8 UNK         0.0238 
     51 CB         20.5489  -31.0007  -44.2859 C.3       8 UNK        -0.1912 
     52 C          21.1605  -33.3684  -43.7261 C.2       8 UNK         0.5038 
     53 O          20.9658  -33.7785  -42.5779 O.2       8 UNK        -0.5046 
     54 N          20.8847  -34.0673  -44.8340 N.am      9 UNK        -0.4200 
     55 CA         20.2497  -35.3978  -44.8739 C.3       9 UNK         0.0839 
     56 C          21.1063  -36.5541  -44.2706 C.2       9 UNK         0.5513 
     57 N          22.4151  -36.3933  -44.1154 N.am      9 UNK        -0.7519 
     58 O          20.5882  -37.6269  -43.9703 O.2       9 UNK        -0.4960 
     59 C59        18.7894  -35.3815  -44.3328 C.3       10 UNK        -0.0876 
     60 S60        17.7115  -34.2378  -45.2627 S.3       10 UNK        -0.2414 
     61 C61        16.4481  -33.8333  -44.0175 C.3       10 UNK         0.0169 
     62 H62        16.9148  -24.0462  -41.7273 H         1 UNK         0.0903 
     63 H63        15.9239  -24.0849  -43.1875 H         1 UNK         0.0903 
     64 H64        15.6352  -25.2509  -41.8939 H         1 UNK         0.0903 
     65 H65        16.9893  -25.0037  -44.9164 H         1 UNK         0.3096 
     66 H66        18.3397  -26.1640  -46.2107 H         1 UNK         0.1121 
     67 H67        18.2904  -28.4268  -44.1453 H         1 UNK         0.0849 
     68 H68        18.7215  -28.5826  -45.8241 H         1 UNK         0.0849 
     69 H69        15.6306  -27.9933  -43.3696 H         1 UNK         0.0865 
     70 H70        14.5425  -29.0542  -44.2204 H         1 UNK         0.0865 
     71 H71        15.5073  -31.4371  -44.8910 H         1 UNK         0.1346 
     72 H72        17.8850  -33.1847  -41.7778 H         1 UNK         0.1412 
     73 H73        17.1080  -28.9657  -41.7757 H         1 UNK         0.1426 
     74 H74        18.3953  -31.8646  -39.8148 H         1 UNK         0.0716 
     75 H75        17.8799  -30.2062  -39.6777 H         1 UNK         0.0716 
     76 H76        19.8899  -28.4633  -39.2793 H         1 UNK         0.0695 
     77 H77        19.0913  -28.1986  -40.8058 H         1 UNK         0.0695 
     78 H78        22.1332  -28.3824  -40.5446 H         1 UNK         0.0983 
     79 H79        20.4550  -28.0261  -42.8350 H         1 UNK         0.3095 
     80 H80        22.6077  -26.1765  -44.8201 H         1 UNK         0.0454 
     81 H81        23.0371  -27.9716  -46.4391 H         1 UNK         0.0851 
     82 H82        22.7174  -29.2073  -45.2270 H         1 UNK         0.0851 
     83 H83        24.0970  -28.1440  -45.0527 H         1 UNK         0.0851 
     84 H84        20.5110  -28.0443  -45.5100 H         1 UNK         0.2976 
     85 H85        20.6723  -25.5272  -41.9084 H         1 UNK         0.3116 
     86 H86        20.8620  -23.8601  -39.5647 H         1 UNK         0.0646 
     87 H87        20.8702  -23.1274  -42.5430 H         1 UNK         0.0847 
     88 H88        20.5967  -22.0167  -41.2088 H         1 UNK         0.0847 
     89 H89        19.4340  -23.2922  -41.5337 H         1 UNK         0.0847 
     90 H90        23.2570  -25.1146  -41.7837 H         1 UNK         0.3040 
     91 H91        25.3098  -23.1200  -40.8987 H         1 UNK         0.1015 
     92 H92        25.2212  -24.9192  -43.3811 H         1 UNK         0.0786 
     93 H93        26.5260  -23.8201  -42.9535 H         1 UNK         0.0786 
     94 H94        24.9398  -23.1796  -43.3508 H         1 UNK         0.0786 
     95 H95        24.7007  -26.6253  -41.4538 H         1 UNK         0.3172 
     96 H96        26.5806  -27.3824  -39.3328 H         1 UNK         0.0595 
     97 H97        27.0491  -28.1259  -42.2780 H         1 UNK         0.0839 
     98 H98        27.8116  -28.9436  -40.9147 H         1 UNK         0.0839 
     99 H99        28.1396  -27.2475  -41.2157 H         1 UNK         0.0839 
    100 H100       25.4524  -29.4392  -42.0172 H         1 UNK         0.2998 
    101 H101       23.1559  -30.4519  -40.5404 H         1 UNK         0.0822 
    102 H102       24.0211  -32.8046  -40.5573 H         1 UNK         0.0787 
    103 H103       25.5877  -32.2390  -41.1241 H         1 UNK         0.0787 
    104 H104       25.0080  -31.7865  -39.5214 H         1 UNK         0.0787 
    105 H105       21.8281  -31.7566  -41.8721 H         1 UNK         0.3055 
    106 H106       22.4372  -31.9696  -44.7598 H         1 UNK         0.1106 
    107 H107       20.1645  -31.1921  -45.2883 H         1 UNK         0.0828 
    108 H108       19.7135  -31.1195  -43.5957 H         1 UNK         0.0828 
    109 H109       20.8523  -29.9593  -44.2413 H         1 UNK         0.0828 
    110 H110       21.0775  -33.6543  -45.7347 H         1 UNK         0.2931 
    111 H111       20.1875  -35.6460  -45.9341 H         1 UNK         0.0412 
    112 H112       22.8571  -35.5238  -44.3668 H         1 UNK         0.3472 
    113 H113       22.9642  -37.1487  -43.7356 H         1 UNK         0.3472 
    114 H114       18.3401  -36.3736  -44.4036 H         1 UNK         0.0970 
    115 H115       18.7796  -35.1210  -43.2735 H         1 UNK         0.0970 
    116 H116       16.4173  -34.6003  -43.2422 H         1 UNK         0.0612 
    117 H117       15.4699  -33.8606  -44.5001 H         1 UNK         0.0612 
@<TRIPOS>BOND
     1    1    2 1    
     2    1   62 1    
     3    1   63 1    
     4    1   64 1    
     5    2    3 2    
     6    2    4 am   BACKBONE|DICT|INTERRES
     7    4    5 1    
     8    4   65 1    
     9    5    6 1    
    10    5   25 1    
    11    5   66 1    
    12    6    7 1    
    13    6   67 1    
    14    6   68 1    
    15    7    8 1    
    16    8    9 1    
    17    8   69 1    
    18    8   70 1    
    19    9   10 ar   
    20    9   14 ar   
    21   10   11 ar   
    22   10   71 1    
    23   11   12 ar   
    24   11   61 1    
    25   12   13 ar   
    26   12   72 1    
    27   13   14 ar   
    28   13   15 1    
    29   14   73 1    
    30   15   16 1    
    31   15   74 1    
    32   15   75 1    
    33   16   17 1    
    34   17   18 1    
    35   17   76 1    
    36   17   77 1    
    37   18   19 1    
    38   18   27 1    
    39   18   78 1    
    40   19   20 am   BACKBONE|DICT|INTERRES
    41   19   79 1    
    42   20   21 2    
    43   20   22 1    
    44   22   23 1    
    45   22   24 1    
    46   22   80 1    
    47   23   81 1    
    48   23   82 1    
    49   23   83 1    
    50   24   25 am   BACKBONE|DICT|INTERRES
    51   24   84 1    
    52   25   26 2    
    53   27   28 2    
    54   27   29 am   BACKBONE|DICT|INTERRES
    55   29   30 1    
    56   29   85 1    
    57   30   31 1    
    58   30   32 1    
    59   30   86 1    
    60   31   87 1    
    61   31   88 1    
    62   31   89 1    
    63   32   33 2    
    64   32   34 am   BACKBONE|DICT|INTERRES
    65   34   35 1    
    66   34   90 1    
    67   35   36 1    
    68   35   37 1    
    69   35   91 1    
    70   36   92 1    
    71   36   93 1    
    72   36   94 1    
    73   37   38 2    
    74   37   39 am   BACKBONE|DICT|INTERRES
    75   39   40 1    
    76   39   95 1    
    77   40   41 1    
    78   40   42 1    
    79   40   96 1    
    80   41   97 1    
    81   41   98 1    
    82   41   99 1    
    83   42   43 2    
    84   42   44 am   BACKBONE|DICT|INTERRES
    85   44   45 1    
    86   44  100 1    
    87   45   46 1    
    88   45   47 1    
    89   45  101 1    
    90   46  102 1    
    91   46  103 1    
    92   46  104 1    
    93   47   48 2    
    94   47   49 am   BACKBONE|DICT|INTERRES
    95   49   50 1    
    96   49  105 1    
    97   50   51 1    
    98   50   52 1    
    99   50  106 1    
   100   51  107 1    
   101   51  108 1    
   102   51  109 1    
   103   52   53 2    
   104   52   54 am   BACKBONE|DICT|INTERRES
   105   54   55 1    
   106   54  110 1    
   107   55   56 1    
   108   55   59 1    
   109   55  111 1    
   110   56   57 am   BACKBONE|DICT|INTERRES
   111   56   58 2    
   112   57  112 1    
   113   57  113 1    
   114   59   60 1    
   115   59  114 1    
   116   59  115 1    
   117   60   61 1    
   118   61  116 1    
   119   61  117 1    
@<TRIPOS>SUBSTRUCTURE
     1 UNK         1 GROUP             0       ****    0 ROOT    
