@<TRIPOS>MOLECULE
3R8
117   119    1
SMALL
USER_CHARGES


@<TRIPOS>ATOM
      1 CA         17.2291  -25.6215  -41.4657 C.3       0 UNK        -0.2013 
      2 C          17.9164  -25.6767  -42.8202 C.2       0 UNK         0.4866 
      3 O          18.9394  -25.0210  -43.0081 O.2       0 UNK        -0.5176 
      4 N          17.3529  -26.4523  -43.7560 N.am      1 UNK        -0.4884 
      5 CA         17.6918  -26.5023  -45.1874 C.3       1 UNK         0.0853 
      6 C6         16.7782  -27.4726  -45.9877 C.3       10 UNK        -0.0849 
      7 S7         15.0319  -27.4133  -45.4337 S.3       10 UNK        -0.2776 
      8 C8         14.6496  -29.1256  -44.9171 C.3       10 UNK         0.0316 
      9 C9         15.7722  -29.8351  -44.1633 C.ar      10 UNK        -0.0863 
     10 C10        16.4350  -30.9028  -44.7757 C.ar      10 UNK        -0.1009 
     11 C11        17.4307  -31.6063  -44.0976 C.ar      10 UNK        -0.0712 
     12 C12        17.7753  -31.2279  -42.7978 C.ar      10 UNK        -0.0894 
     13 C13        17.1264  -30.1601  -42.1654 C.ar      10 UNK        -0.0745 
     14 C14        16.1176  -29.4724  -42.8549 C.ar      10 UNK        -0.0972 
     15 C15        17.4368  -29.8111  -40.7091 C.3       10 UNK         0.0209 
     16 S16        19.2141  -29.9030  -40.2761 S.3       10 UNK        -0.2568 
     17 C17        19.6658  -28.1639  -39.9446 C.3       10 UNK        -0.0983 
     18 CA         20.8899  -27.7128  -40.7755 C.3       3 UNK         0.0876 
     19 N          20.6489  -27.8394  -42.2153 N.am      3 UNK        -0.4424 
     20 C          21.5444  -27.6561  -43.1977 C.2       2 UNK         0.4918 
     21 O          22.6595  -27.1609  -43.0360 O.2       2 UNK        -0.4875 
     22 CA         21.1146  -28.0981  -44.6035 C.3       2 UNK         0.0481 
     23 CB         21.4296  -29.5885  -44.7981 C.3       2 UNK        -0.1831 
     24 N          19.6837  -27.8586  -44.8033 N.am      2 UNK        -0.4498 
     25 C          19.1828  -26.7934  -45.4421 C.2       1 UNK         0.5027 
     26 O          19.8440  -26.0289  -46.1466 O.2       1 UNK        -0.4969 
     27 C          21.4196  -26.3403  -40.3106 C.2       3 UNK         0.5005 
     28 O          22.0961  -26.2890  -39.2823 O.2       3 UNK        -0.5279 
     29 N          21.1476  -25.2645  -41.0654 N.am      4 UNK        -0.4463 
     30 CA         21.7206  -23.9351  -40.8319 C.3       4 UNK         0.0283 
     31 CB         20.9794  -22.8974  -41.6890 C.3       4 UNK        -0.1875 
     32 C          23.2376  -23.8632  -41.0977 C.2       4 UNK         0.4949 
     33 O          23.9076  -23.0295  -40.4875 O.2       4 UNK        -0.5039 
     34 N          23.7524  -24.7203  -41.9911 N.am      5 UNK        -0.4663 
     35 CA         25.1785  -24.8416  -42.2957 C.3       5 UNK         0.0242 
     36 CB         25.3689  -25.1503  -43.7908 C.3       5 UNK        -0.1982 
     37 C          25.8317  -25.9200  -41.4199 C.2       5 UNK         0.5017 
     38 O          26.8451  -25.6407  -40.7781 O.2       5 UNK        -0.5012 
     39 N          25.2384  -27.1200  -41.3932 N.am      6 UNK        -0.4439 
     40 CA         25.6727  -28.2617  -40.5891 C.3       6 UNK         0.0297 
     41 CB         26.8998  -28.9409  -41.2258 C.3       6 UNK        -0.2006 
     42 C          24.5027  -29.2421  -40.4804 C.2       6 UNK         0.4892 
     43 O          23.7963  -29.4361  -41.4690 O.2       6 UNK        -0.5089 
     44 N          24.3108  -29.8269  -39.2907 N.am      7 UNK        -0.4243 
     45 CA         23.1952  -30.7204  -38.9624 C.3       7 UNK         0.0196 
     46 CB         23.2809  -31.1161  -37.4792 C.3       7 UNK        -0.2007 
     47 C          23.1358  -31.9732  -39.8558 C.2       7 UNK         0.5020 
     48 O          24.1479  -32.6644  -39.9914 O.2       7 UNK        -0.5147 
     49 N          21.9353  -32.2405  -40.3912 N.am      8 UNK        -0.4734 
     50 CA         21.5487  -33.3166  -41.3150 C.3       8 UNK         0.0238 
     51 CB         21.8884  -34.7097  -40.7463 C.3       8 UNK        -0.1912 
     52 C          22.1065  -33.1440  -42.7417 C.2       8 UNK         0.5038 
     53 O          23.1980  -32.6084  -42.9398 O.2       8 UNK        -0.5046 
     54 N          21.3308  -33.6251  -43.7186 N.am      9 UNK        -0.4200 
     55 CA         21.6921  -33.6506  -45.1428 C.3       9 UNK         0.0839 
     56 C          22.6875  -34.7985  -45.4569 C.2       9 UNK         0.5513 
     57 N          23.5781  -34.5997  -46.4187 N.am      9 UNK        -0.7519 
     58 O          22.6320  -35.8775  -44.8697 O.2       9 UNK        -0.4960 
     59 C59        20.4326  -33.7463  -46.0434 C.3       10 UNK        -0.0876 
     60 S60        19.3950  -32.2518  -45.9173 S.3       10 UNK        -0.2414 
     61 C61        18.1078  -32.7962  -44.7581 C.3       10 UNK         0.0169 
     62 H62        16.7235  -26.5571  -41.2315 H         1 UNK         0.0903 
     63 H63        17.9510  -25.4119  -40.6771 H         1 UNK         0.0903 
     64 H64        16.4887  -24.8221  -41.4594 H         1 UNK         0.0903 
     65 H65        16.5056  -26.9539  -43.5300 H         1 UNK         0.3096 
     66 H66        17.5047  -25.4951  -45.5667 H         1 UNK         0.1121 
     67 H67        16.8043  -27.2097  -47.0467 H         1 UNK         0.0849 
     68 H68        17.1493  -28.4960  -45.9410 H         1 UNK         0.0849 
     69 H69        13.7563  -29.1095  -44.2911 H         1 UNK         0.0865 
     70 H70        14.3738  -29.6935  -45.8072 H         1 UNK         0.0865 
     71 H71        16.1681  -31.2010  -45.7807 H         1 UNK         0.1346 
     72 H72        18.5327  -31.7868  -42.2673 H         1 UNK         0.1412 
     73 H73        15.5793  -28.6721  -42.3660 H         1 UNK         0.1426 
     74 H74        16.9038  -30.5230  -40.0777 H         1 UNK         0.0716 
     75 H75        17.0335  -28.8320  -40.4520 H         1 UNK         0.0716 
     76 H76        18.8167  -27.5094  -40.1289 H         1 UNK         0.0695 
     77 H77        19.8798  -28.0861  -38.8767 H         1 UNK         0.0695 
     78 H78        21.6922  -28.4118  -40.5519 H         1 UNK         0.0983 
     79 H79        19.7611  -28.2489  -42.4551 H         1 UNK         0.3095 
     80 H80        21.7048  -27.5318  -45.3269 H         1 UNK         0.0454 
     81 H81        22.4823  -29.7962  -44.5991 H         1 UNK         0.0851 
     82 H82        20.8455  -30.2211  -44.1283 H         1 UNK         0.0851 
     83 H83        21.2273  -29.9009  -45.8220 H         1 UNK         0.0851 
     84 H84        19.0396  -28.4489  -44.2974 H         1 UNK         0.2976 
     85 H85        20.5462  -25.3640  -41.8791 H         1 UNK         0.3116 
     86 H86        21.5606  -23.6804  -39.7820 H         1 UNK         0.0646 
     87 H87        21.3755  -21.8950  -41.5211 H         1 UNK         0.0847 
     88 H88        19.9167  -22.8695  -41.4474 H         1 UNK         0.0847 
     89 H89        21.0746  -23.1128  -42.7541 H         1 UNK         0.0847 
     90 H90        23.1438  -25.4176  -42.4107 H         1 UNK         0.3040 
     91 H91        25.6815  -23.8942  -42.0879 H         1 UNK         0.1015 
     92 H92        24.8965  -26.0892  -44.0811 H         1 UNK         0.0786 
     93 H93        26.4281  -25.2291  -44.0390 H         1 UNK         0.0786 
     94 H94        24.9486  -24.3599  -44.4128 H         1 UNK         0.0786 
     95 H95        24.3938  -27.2791  -41.9393 H         1 UNK         0.3172 
     96 H96        25.9310  -27.9086  -39.5884 H         1 UNK         0.0595 
     97 H97        27.2061  -29.8140  -40.6482 H         1 UNK         0.0839 
     98 H98        27.7551  -28.2666  -41.2692 H         1 UNK         0.0839 
     99 H99        26.6874  -29.2792  -42.2408 H         1 UNK         0.0839 
    100 H100       24.9656  -29.6360  -38.5462 H         1 UNK         0.2998 
    101 H101       22.2751  -30.1497  -39.0993 H         1 UNK         0.0822 
    102 H102       24.2029  -31.6562  -37.2592 H         1 UNK         0.0787 
    103 H103       23.2390  -30.2413  -36.8298 H         1 UNK         0.0787 
    104 H104       22.4493  -31.7649  -37.2003 H         1 UNK         0.0787 
    105 H105       21.1968  -31.5738  -40.2062 H         1 UNK         0.3055 
    106 H106       20.4617  -33.2483  -41.3837 H         1 UNK         0.1106 
    107 H107       22.9639  -34.8851  -40.7101 H         1 UNK         0.0828 
    108 H108       21.4925  -34.8365  -39.7387 H         1 UNK         0.0828 
    109 H109       21.4588  -35.4987  -41.3647 H         1 UNK         0.0828 
    110 H110       20.4804  -34.1087  -43.4759 H         1 UNK         0.2931 
    111 H111       22.1940  -32.7083  -45.3749 H         1 UNK         0.0412 
    112 H112       24.2241  -35.3388  -46.6497 H         1 UNK         0.3472 
    113 H113       23.6256  -33.7215  -46.9122 H         1 UNK         0.3472 
    114 H114       19.8452  -34.6364  -45.8102 H         1 UNK         0.0970 
    115 H115       20.7225  -33.8455  -47.0914 H         1 UNK         0.0970 
    116 H116       17.3716  -33.3963  -45.2950 H         1 UNK         0.0612 
    117 H117       18.5386  -33.4477  -43.9977 H         1 UNK         0.0612 
@<TRIPOS>BOND
     1    1    2 1    
     2    1   62 1    
     3    1   63 1    
     4    1   64 1    
     5    2    3 2    
     6    2    4 am   BACKBONE|DICT|INTERRES
     7    4    5 1    
     8    4   65 1    
     9    5    6 1    
    10    5   25 1    
    11    5   66 1    
    12    6    7 1    
    13    6   67 1    
    14    6   68 1    
    15    7    8 1    
    16    8    9 1    
    17    8   69 1    
    18    8   70 1    
    19    9   10 ar   
    20    9   14 ar   
    21   10   11 ar   
    22   10   71 1    
    23   11   12 ar   
    24   11   61 1    
    25   12   13 ar   
    26   12   72 1    
    27   13   14 ar   
    28   13   15 1    
    29   14   73 1    
    30   15   16 1    
    31   15   74 1    
    32   15   75 1    
    33   16   17 1    
    34   17   18 1    
    35   17   76 1    
    36   17   77 1    
    37   18   19 1    
    38   18   27 1    
    39   18   78 1    
    40   19   20 am   BACKBONE|DICT|INTERRES
    41   19   79 1    
    42   20   21 2    
    43   20   22 1    
    44   22   23 1    
    45   22   24 1    
    46   22   80 1    
    47   23   81 1    
    48   23   82 1    
    49   23   83 1    
    50   24   25 am   BACKBONE|DICT|INTERRES
    51   24   84 1    
    52   25   26 2    
    53   27   28 2    
    54   27   29 am   BACKBONE|DICT|INTERRES
    55   29   30 1    
    56   29   85 1    
    57   30   31 1    
    58   30   32 1    
    59   30   86 1    
    60   31   87 1    
    61   31   88 1    
    62   31   89 1    
    63   32   33 2    
    64   32   34 am   BACKBONE|DICT|INTERRES
    65   34   35 1    
    66   34   90 1    
    67   35   36 1    
    68   35   37 1    
    69   35   91 1    
    70   36   92 1    
    71   36   93 1    
    72   36   94 1    
    73   37   38 2    
    74   37   39 am   BACKBONE|DICT|INTERRES
    75   39   40 1    
    76   39   95 1    
    77   40   41 1    
    78   40   42 1    
    79   40   96 1    
    80   41   97 1    
    81   41   98 1    
    82   41   99 1    
    83   42   43 2    
    84   42   44 am   BACKBONE|DICT|INTERRES
    85   44   45 1    
    86   44  100 1    
    87   45   46 1    
    88   45   47 1    
    89   45  101 1    
    90   46  102 1    
    91   46  103 1    
    92   46  104 1    
    93   47   48 2    
    94   47   49 am   BACKBONE|DICT|INTERRES
    95   49   50 1    
    96   49  105 1    
    97   50   51 1    
    98   50   52 1    
    99   50  106 1    
   100   51  107 1    
   101   51  108 1    
   102   51  109 1    
   103   52   53 2    
   104   52   54 am   BACKBONE|DICT|INTERRES
   105   54   55 1    
   106   54  110 1    
   107   55   56 1    
   108   55   59 1    
   109   55  111 1    
   110   56   57 am   BACKBONE|DICT|INTERRES
   111   56   58 2    
   112   57  112 1    
   113   57  113 1    
   114   59   60 1    
   115   59  114 1    
   116   59  115 1    
   117   60   61 1    
   118   61  116 1    
   119   61  117 1    
@<TRIPOS>SUBSTRUCTURE
     1 UNK         1 GROUP             0       ****    0 ROOT    
