@<TRIPOS>MOLECULE
3R8
117   119    1
SMALL
USER_CHARGES


@<TRIPOS>ATOM
      1 CA         14.4429  -30.1170  -42.1922 C.3       0 UNK        -0.2013 
      2 C          14.7773  -28.6326  -42.1903 C.2       0 UNK         0.4866 
      3 O          14.6870  -27.9885  -41.1458 O.2       0 UNK        -0.5176 
      4 N          15.1586  -28.0848  -43.3535 N.am      1 UNK        -0.4884 
      5 CA         15.5116  -26.6715  -43.5454 C.3       1 UNK         0.0853 
      6 C6         15.5074  -26.2802  -45.0512 C.3       10 UNK        -0.0849 
      7 S7         17.0481  -26.5572  -46.0022 S.3       10 UNK        -0.2776 
      8 C8         16.9610  -28.3186  -46.4564 C.3       10 UNK         0.0316 
      9 C9         18.0428  -29.1090  -45.7345 C.ar      10 UNK        -0.0863 
     10 C10        17.7286  -29.9330  -44.6496 C.ar      10 UNK        -0.1009 
     11 C11        18.7348  -30.6236  -43.9697 C.ar      10 UNK        -0.0712 
     12 C12        20.0600  -30.5043  -44.3949 C.ar      10 UNK        -0.0894 
     13 C13        20.3837  -29.7161  -45.5020 C.ar      10 UNK        -0.0745 
     14 C14        19.3703  -29.0170  -46.1640 C.ar      10 UNK        -0.0972 
     15 C15        21.8194  -29.6540  -46.0033 C.3       10 UNK         0.0209 
     16 S16        22.8394  -28.4969  -45.0391 S.3       10 UNK        -0.2568 
     17 C17        22.1917  -26.8758  -45.5908 C.3       10 UNK        -0.0983 
     18 CA         21.6808  -25.9769  -44.4350 C.3       3 UNK         0.0876 
     19 N          20.6657  -26.6648  -43.6324 N.am      3 UNK        -0.4424 
     20 C          19.9553  -26.1213  -42.6377 C.2       2 UNK         0.4918 
     21 O          20.0171  -24.9332  -42.3146 O.2       2 UNK        -0.4875 
     22 CA         19.0081  -27.0824  -41.8981 C.3       2 UNK         0.0481 
     23 CB         18.8328  -26.7122  -40.4115 C.3       2 UNK        -0.1831 
     24 N          17.7108  -27.2005  -42.5707 N.am      2 UNK        -0.4498 
     25 C          16.7946  -26.2423  -42.7938 C.2       1 UNK         0.5027 
     26 O          16.9023  -25.0720  -42.4259 O.2       1 UNK        -0.4969 
     27 C          22.8635  -25.4448  -43.5943 C.2       3 UNK         0.5005 
     28 O          23.1687  -25.9874  -42.5279 O.2       3 UNK        -0.5279 
     29 N          23.5603  -24.4351  -44.1379 N.am      4 UNK        -0.4463 
     30 CA         24.7498  -23.8003  -43.5526 C.3       4 UNK         0.0283 
     31 CB         25.1534  -22.5946  -44.4169 C.3       4 UNK        -0.1875 
     32 C          25.9535  -24.7434  -43.3531 C.2       4 UNK         0.4949 
     33 O          26.8410  -24.4231  -42.5626 O.2       4 UNK        -0.5039 
     34 N          25.9548  -25.8941  -44.0419 N.am      5 UNK        -0.4663 
     35 CA         26.9063  -26.9906  -43.8425 C.3       5 UNK         0.0242 
     36 CB         26.8108  -27.9605  -45.0319 C.3       5 UNK        -0.1982 
     37 C          26.7062  -27.7451  -42.5118 C.2       5 UNK         0.5017 
     38 O          27.6092  -28.4807  -42.1123 O.2       5 UNK        -0.5012 
     39 N          25.5484  -27.5533  -41.8558 N.am      6 UNK        -0.4439 
     40 CA         25.1526  -28.1211  -40.5624 C.3       6 UNK         0.0297 
     41 CB         26.0435  -27.5767  -39.4251 C.3       6 UNK        -0.2006 
     42 C          25.0620  -29.6585  -40.5789 C.2       6 UNK         0.4892 
     43 O          25.4930  -30.3141  -39.6285 O.2       6 UNK        -0.5089 
     44 N          24.4843  -30.2055  -41.6592 N.am      7 UNK        -0.4243 
     45 CA         24.2436  -31.6424  -41.8350 C.3       7 UNK         0.0196 
     46 CB         23.8988  -31.9224  -43.3053 C.3       7 UNK        -0.2007 
     47 C          23.1606  -32.2057  -40.8935 C.2       7 UNK         0.5020 
     48 O          23.1635  -33.4081  -40.6301 O.2       7 UNK        -0.5147 
     49 N          22.2673  -31.3332  -40.3998 N.am      8 UNK        -0.4734 
     50 CA         21.2587  -31.5221  -39.3418 C.3       8 UNK         0.0238 
     51 CB         21.9380  -31.8712  -38.0024 C.3       8 UNK        -0.1912 
     52 C          20.1107  -32.5074  -39.6366 C.2       8 UNK         0.5038 
     53 O          19.0218  -32.3111  -39.0960 O.2       8 UNK        -0.5046 
     54 N          20.3506  -33.5234  -40.4741 N.am      9 UNK        -0.4200 
     55 CA         19.4071  -34.5931  -40.8499 C.3       9 UNK         0.0839 
     56 C          19.0346  -35.5575  -39.6807 C.2       9 UNK         0.5513 
     57 N          19.8176  -35.6295  -38.6095 N.am      9 UNK        -0.7519 
     58 O          18.0410  -36.2769  -39.7530 O.2       9 UNK        -0.4960 
     59 C59        18.1594  -34.0705  -41.6240 C.3       10 UNK        -0.0876 
     60 S60        18.5945  -33.2663  -43.2022 S.3       10 UNK        -0.2414 
     61 C61        18.3984  -31.5082  -42.7811 C.3       10 UNK         0.0169 
     62 H62        15.1022  -30.6508  -41.5083 H         1 UNK         0.0903 
     63 H63        13.4163  -30.2683  -41.8595 H         1 UNK         0.0903 
     64 H64        14.5449  -30.5622  -43.1814 H         1 UNK         0.0903 
     65 H65        15.1640  -28.6513  -44.1876 H         1 UNK         0.3096 
     66 H66        14.7032  -26.1034  -43.0782 H         1 UNK         0.1121 
     67 H67        14.6719  -26.7530  -45.5703 H         1 UNK         0.0849 
     68 H68        15.3040  -25.2102  -45.1222 H         1 UNK         0.0849 
     69 H69        17.1048  -28.4113  -47.5340 H         1 UNK         0.0865 
     70 H70        15.9706  -28.7255  -46.2507 H         1 UNK         0.0865 
     71 H71        16.7030  -30.0483  -44.3360 H         1 UNK         0.1346 
     72 H72        20.8317  -31.0538  -43.8768 H         1 UNK         0.1412 
     73 H73        19.6100  -28.4002  -47.0193 H         1 UNK         0.1426 
     74 H74        21.8499  -29.3740  -47.0575 H         1 UNK         0.0716 
     75 H75        22.2662  -30.6474  -45.9445 H         1 UNK         0.0716 
     76 H76        21.3826  -27.0296  -46.3040 H         1 UNK         0.0695 
     77 H77        22.9735  -26.3736  -46.1635 H         1 UNK         0.0695 
     78 H78        21.1869  -25.1081  -44.8759 H         1 UNK         0.0983 
     79 H79        20.5570  -27.6486  -43.8328 H         1 UNK         0.3095 
     80 H80        19.4588  -28.0758  -41.9297 H         1 UNK         0.0454 
     81 H81        18.2043  -27.4373  -39.8948 H         1 UNK         0.0851 
     82 H82        18.3817  -25.7282  -40.2828 H         1 UNK         0.0851 
     83 H83        19.7966  -26.6936  -39.9015 H         1 UNK         0.0851 
     84 H84        17.5093  -28.1096  -42.9607 H         1 UNK         0.2976 
     85 H85        23.2537  -24.0620  -45.0257 H         1 UNK         0.3116 
     86 H86        24.4680  -23.4321  -42.5640 H         1 UNK         0.0646 
     87 H87        26.0149  -22.0787  -43.9901 H         1 UNK         0.0847 
     88 H88        24.3463  -21.8650  -44.4859 H         1 UNK         0.0847 
     89 H89        25.4246  -22.8957  -45.4296 H         1 UNK         0.0847 
     90 H90        25.1890  -26.0688  -44.6759 H         1 UNK         0.3040 
     91 H91        27.9136  -26.5682  -43.8240 H         1 UNK         0.1015 
     92 H92        27.0017  -27.4520  -45.9771 H         1 UNK         0.0786 
     93 H93        25.8292  -28.4304  -45.0941 H         1 UNK         0.0786 
     94 H94        27.5471  -28.7605  -44.9425 H         1 UNK         0.0786 
     95 H95        24.8560  -26.9360  -42.2744 H         1 UNK         0.3172 
     96 H96        24.1384  -27.7632  -40.3786 H         1 UNK         0.0595 
     97 H97        27.0702  -27.9349  -39.5060 H         1 UNK         0.0839 
     98 H98        25.6671  -27.8895  -38.4503 H         1 UNK         0.0839 
     99 H99        26.0672  -26.4869  -39.4274 H         1 UNK         0.0839 
    100 H100       24.1792  -29.5939  -42.4034 H         1 UNK         0.2998 
    101 H101       25.1716  -32.1688  -41.6010 H         1 UNK         0.0822 
    102 H102       23.0222  -31.3629  -43.6251 H         1 UNK         0.0787 
    103 H103       24.7243  -31.6501  -43.9634 H         1 UNK         0.0787 
    104 H104       23.6912  -32.9811  -43.4674 H         1 UNK         0.0787 
    105 H105       22.3457  -30.3846  -40.7380 H         1 UNK         0.3055 
    106 H106       20.7833  -30.5470  -39.2179 H         1 UNK         0.1106 
    107 H107       21.2082  -31.9140  -37.1926 H         1 UNK         0.0828 
    108 H108       22.4379  -32.8399  -38.0392 H         1 UNK         0.0828 
    109 H109       22.6812  -31.1223  -37.7281 H         1 UNK         0.0828 
    110 H110       21.3060  -33.6313  -40.8020 H         1 UNK         0.2931 
    111 H111       19.9648  -35.2250  -41.5423 H         1 UNK         0.0412 
    112 H112       19.5770  -36.2624  -37.8625 H         1 UNK         0.3472 
    113 H113       20.6485  -35.0632  -38.5449 H         1 UNK         0.3472 
    114 H114       17.4949  -34.8988  -41.8763 H         1 UNK         0.0970 
    115 H115       17.5650  -33.3966  -41.0054 H         1 UNK         0.0970 
    116 H116       17.3775  -31.3303  -42.4404 H         1 UNK         0.0612 
    117 H117       19.0549  -31.2493  -41.9511 H         1 UNK         0.0612 
@<TRIPOS>BOND
     1    1    2 1    
     2    1   62 1    
     3    1   63 1    
     4    1   64 1    
     5    2    3 2    
     6    2    4 am   BACKBONE|DICT|INTERRES
     7    4    5 1    
     8    4   65 1    
     9    5    6 1    
    10    5   25 1    
    11    5   66 1    
    12    6    7 1    
    13    6   67 1    
    14    6   68 1    
    15    7    8 1    
    16    8    9 1    
    17    8   69 1    
    18    8   70 1    
    19    9   10 ar   
    20    9   14 ar   
    21   10   11 ar   
    22   10   71 1    
    23   11   12 ar   
    24   11   61 1    
    25   12   13 ar   
    26   12   72 1    
    27   13   14 ar   
    28   13   15 1    
    29   14   73 1    
    30   15   16 1    
    31   15   74 1    
    32   15   75 1    
    33   16   17 1    
    34   17   18 1    
    35   17   76 1    
    36   17   77 1    
    37   18   19 1    
    38   18   27 1    
    39   18   78 1    
    40   19   20 am   BACKBONE|DICT|INTERRES
    41   19   79 1    
    42   20   21 2    
    43   20   22 1    
    44   22   23 1    
    45   22   24 1    
    46   22   80 1    
    47   23   81 1    
    48   23   82 1    
    49   23   83 1    
    50   24   25 am   BACKBONE|DICT|INTERRES
    51   24   84 1    
    52   25   26 2    
    53   27   28 2    
    54   27   29 am   BACKBONE|DICT|INTERRES
    55   29   30 1    
    56   29   85 1    
    57   30   31 1    
    58   30   32 1    
    59   30   86 1    
    60   31   87 1    
    61   31   88 1    
    62   31   89 1    
    63   32   33 2    
    64   32   34 am   BACKBONE|DICT|INTERRES
    65   34   35 1    
    66   34   90 1    
    67   35   36 1    
    68   35   37 1    
    69   35   91 1    
    70   36   92 1    
    71   36   93 1    
    72   36   94 1    
    73   37   38 2    
    74   37   39 am   BACKBONE|DICT|INTERRES
    75   39   40 1    
    76   39   95 1    
    77   40   41 1    
    78   40   42 1    
    79   40   96 1    
    80   41   97 1    
    81   41   98 1    
    82   41   99 1    
    83   42   43 2    
    84   42   44 am   BACKBONE|DICT|INTERRES
    85   44   45 1    
    86   44  100 1    
    87   45   46 1    
    88   45   47 1    
    89   45  101 1    
    90   46  102 1    
    91   46  103 1    
    92   46  104 1    
    93   47   48 2    
    94   47   49 am   BACKBONE|DICT|INTERRES
    95   49   50 1    
    96   49  105 1    
    97   50   51 1    
    98   50   52 1    
    99   50  106 1    
   100   51  107 1    
   101   51  108 1    
   102   51  109 1    
   103   52   53 2    
   104   52   54 am   BACKBONE|DICT|INTERRES
   105   54   55 1    
   106   54  110 1    
   107   55   56 1    
   108   55   59 1    
   109   55  111 1    
   110   56   57 am   BACKBONE|DICT|INTERRES
   111   56   58 2    
   112   57  112 1    
   113   57  113 1    
   114   59   60 1    
   115   59  114 1    
   116   59  115 1    
   117   60   61 1    
   118   61  116 1    
   119   61  117 1    
@<TRIPOS>SUBSTRUCTURE
     1 UNK         1 GROUP             0       ****    0 ROOT    
