@<TRIPOS>MOLECULE
3R8
117   119    1
SMALL
USER_CHARGES


@<TRIPOS>ATOM
      1 CA         23.0538  -29.0045  -44.4381 C.3       0 UNK        -0.2013 
      2 C          21.6716  -28.4253  -44.6925 C.2       0 UNK         0.4866 
      3 O          21.0720  -27.8589  -43.7783 O.2       0 UNK        -0.5176 
      4 N          21.1564  -28.5751  -45.9197 N.am      1 UNK        -0.4884 
      5 CA         19.8370  -28.0880  -46.3347 C.3       1 UNK         0.0853 
      6 C6         19.4392  -28.6708  -47.7175 C.3       10 UNK        -0.0849 
      7 S7         17.7393  -28.2670  -48.2633 S.3       10 UNK        -0.2776 
      8 C8         16.7607  -29.6469  -47.5899 C.3       10 UNK         0.0316 
      9 C9         16.7235  -29.6319  -46.0681 C.ar      10 UNK        -0.0863 
     10 C10        17.4592  -30.5737  -45.3428 C.ar      10 UNK        -0.1009 
     11 C11        17.4273  -30.5723  -43.9467 C.ar      10 UNK        -0.0712 
     12 C12        16.6438  -29.6309  -43.2759 C.ar      10 UNK        -0.0894 
     13 C13        15.9080  -28.6763  -43.9861 C.ar      10 UNK        -0.0745 
     14 C14        15.9505  -28.6850  -45.3851 C.ar      10 UNK        -0.0972 
     15 C15        15.0156  -27.6826  -43.2481 C.3       10 UNK         0.0209 
     16 S16        15.8317  -26.8934  -41.8175 S.3       10 UNK        -0.2568 
     17 C17        16.7302  -25.5004  -42.5804 C.3       10 UNK        -0.0983 
     18 CA         18.2476  -25.7459  -42.8028 C.3       3 UNK         0.0876 
     19 N          18.9277  -24.5620  -43.3291 N.am      3 UNK        -0.4424 
     20 C          18.9462  -24.0209  -44.5554 C.2       2 UNK         0.4918 
     21 O          19.5963  -22.9997  -44.7762 O.2       2 UNK        -0.4875 
     22 CA         18.1546  -24.6711  -45.7153 C.3       2 UNK         0.0481 
     23 CB         18.2357  -23.8609  -47.0274 C.3       2 UNK        -0.1831 
     24 N          18.5335  -26.0641  -45.9546 N.am      2 UNK        -0.4498 
     25 C          19.7427  -26.5471  -46.2752 C.2       1 UNK         0.5027 
     26 O          20.7347  -25.8546  -46.5176 O.2       1 UNK        -0.4969 
     27 C          19.0020  -26.0613  -41.4990 C.2       3 UNK         0.5005 
     28 O          19.2152  -25.1417  -40.7029 O.2       3 UNK        -0.5279 
     29 N          19.4272  -27.3232  -41.3258 N.am      4 UNK        -0.4463 
     30 CA         20.2924  -27.8175  -40.2436 C.3       4 UNK         0.0283 
     31 CB         19.5515  -27.7951  -38.8906 C.3       4 UNK        -0.1875 
     32 C          21.6567  -27.0966  -40.2010 C.2       4 UNK         0.4949 
     33 O          22.1792  -26.8133  -39.1223 O.2       4 UNK        -0.5039 
     34 N          22.2031  -26.7998  -41.3877 N.am      5 UNK        -0.4663 
     35 CA         23.4241  -26.0132  -41.5868 C.3       5 UNK         0.0242 
     36 CB         23.3038  -25.2519  -42.9196 C.3       5 UNK        -0.1982 
     37 C          24.7183  -26.8482  -41.5284 C.2       5 UNK         0.5017 
     38 O          25.7942  -26.3015  -41.7752 O.2       5 UNK        -0.5012 
     39 N          24.6072  -28.1420  -41.2097 N.am      6 UNK        -0.4439 
     40 CA         25.7124  -29.0751  -41.0175 C.3       6 UNK         0.0297 
     41 CB         25.9892  -29.8301  -42.3294 C.3       6 UNK        -0.2006 
     42 C          25.3346  -30.0469  -39.8953 C.2       6 UNK         0.4892 
     43 O          24.1448  -30.2155  -39.6090 O.2       6 UNK        -0.5089 
     44 N          26.3496  -30.6834  -39.2958 N.am      7 UNK        -0.4243 
     45 CA         26.1993  -31.7078  -38.2594 C.3       7 UNK         0.0196 
     46 CB         27.5850  -32.1046  -37.7234 C.3       7 UNK        -0.2007 
     47 C          25.4432  -32.9316  -38.8023 C.2       7 UNK         0.5020 
     48 O          25.9053  -33.5482  -39.7634 O.2       7 UNK        -0.5147 
     49 N          24.2821  -33.2200  -38.1979 N.am      8 UNK        -0.4734 
     50 CA         23.2865  -34.2198  -38.6150 C.3       8 UNK         0.0238 
     51 CB         23.8675  -35.6500  -38.5643 C.3       8 UNK        -0.1912 
     52 C          22.6066  -33.9006  -39.9658 C.2       8 UNK         0.5038 
     53 O          22.0260  -34.8010  -40.5752 O.2       8 UNK        -0.5046 
     54 N          22.6518  -32.6282  -40.3880 N.am      9 UNK        -0.4200 
     55 CA         22.0845  -32.1020  -41.6364 C.3       9 UNK         0.0839 
     56 C          22.7794  -32.6477  -42.9222 C.2       9 UNK         0.5513 
     57 N          22.1724  -32.4743  -44.0884 N.am      9 UNK        -0.7519 
     58 O          23.8867  -33.1789  -42.8856 O.2       9 UNK        -0.4960 
     59 C59        20.5298  -32.1966  -41.6500 C.3       10 UNK        -0.0876 
     60 S60        19.7651  -30.8067  -42.5434 S.3       10 UNK        -0.2414 
     61 C61        18.2438  -31.5797  -43.1572 C.3       10 UNK         0.0169 
     62 H62        23.0669  -29.5147  -43.4766 H         1 UNK         0.0903 
     63 H63        23.8011  -28.2126  -44.4141 H         1 UNK         0.0903 
     64 H64        23.3400  -29.7249  -45.2041 H         1 UNK         0.0903 
     65 H65        21.7105  -29.0170  -46.6390 H         1 UNK         0.3096 
     66 H66        19.1418  -28.4713  -45.5876 H         1 UNK         0.1121 
     67 H67        19.5466  -29.7567  -47.7072 H         1 UNK         0.0849 
     68 H68        20.1289  -28.3126  -48.4839 H         1 UNK         0.0849 
     69 H69        15.7418  -29.5763  -47.9736 H         1 UNK         0.0865 
     70 H70        17.1586  -30.5917  -47.9639 H         1 UNK         0.0865 
     71 H71        18.0648  -31.3031  -45.8636 H         1 UNK         0.1346 
     72 H72        16.6106  -29.6427  -42.1949 H         1 UNK         0.1412 
     73 H73        15.3712  -27.9649  -45.9476 H         1 UNK         0.1426 
     74 H74        14.1413  -28.2236  -42.8841 H         1 UNK         0.0716 
     75 H75        14.6357  -26.9148  -43.9237 H         1 UNK         0.0716 
     76 H76        16.5878  -24.6308  -41.9360 H         1 UNK         0.0695 
     77 H77        16.2358  -25.2478  -43.5158 H         1 UNK         0.0695 
     78 H78        18.3845  -26.5913  -43.4754 H         1 UNK         0.0983 
     79 H79        19.4698  -24.1037  -42.6073 H         1 UNK         0.3095 
     80 H80        17.1056  -24.6780  -45.4262 H         1 UNK         0.0454 
     81 H81        19.2598  -23.7722  -47.3913 H         1 UNK         0.0851 
     82 H82        17.8543  -22.8492  -46.8849 H         1 UNK         0.0851 
     83 H83        17.6405  -24.3224  -47.8154 H         1 UNK         0.0851 
     84 H84        17.7876  -26.7349  -45.8331 H         1 UNK         0.2976 
     85 H85        19.2620  -27.9882  -42.0711 H         1 UNK         0.3116 
     86 H86        20.5145  -28.8592  -40.4755 H         1 UNK         0.0646 
     87 H87        19.3479  -26.7775  -38.5562 H         1 UNK         0.0847 
     88 H88        20.1438  -28.2795  -38.1135 H         1 UNK         0.0847 
     89 H89        18.6013  -28.3254  -38.9509 H         1 UNK         0.0847 
     90 H90        21.7211  -27.1097  -42.2313 H         1 UNK         0.3040 
     91 H91        23.4966  -25.2726  -40.7872 H         1 UNK         0.1015 
     92 H92        23.2571  -25.9286  -43.7723 H         1 UNK         0.0786 
     93 H93        24.1575  -24.5909  -43.0747 H         1 UNK         0.0786 
     94 H94        22.4084  -24.6300  -42.9409 H         1 UNK         0.0786 
     95 H95        23.7024  -28.4971  -40.9275 H         1 UNK         0.3172 
     96 H96        26.6078  -28.5297  -40.7115 H         1 UNK         0.0595 
     97 H97        26.8518  -30.4895  -42.2274 H         1 UNK         0.0839 
     98 H98        26.2034  -29.1422  -43.1475 H         1 UNK         0.0839 
     99 H99        25.1431  -30.4513  -42.6247 H         1 UNK         0.0839 
    100 H100       27.2901  -30.5065  -39.6182 H         1 UNK         0.2998 
    101 H101       25.6300  -31.2684  -37.4372 H         1 UNK         0.0822 
    102 H102       27.4975  -32.8592  -36.9404 H         1 UNK         0.0787 
    103 H103       28.2182  -32.5216  -38.5078 H         1 UNK         0.0787 
    104 H104       28.1045  -31.2491  -37.2911 H         1 UNK         0.0787 
    105 H105       23.9990  -32.6342  -37.4230 H         1 UNK         0.3055 
    106 H106       22.4872  -34.1715  -37.8735 H         1 UNK         0.1106 
    107 H107       23.0832  -36.3956  -38.7006 H         1 UNK         0.0828 
    108 H108       24.6079  -35.8166  -39.3470 H         1 UNK         0.0828 
    109 H109       24.3409  -35.8537  -37.6040 H         1 UNK         0.0828 
    110 H110       23.1867  -31.9549  -39.8494 H         1 UNK         0.2931 
    111 H111       22.3554  -31.0461  -41.6047 H         1 UNK         0.0412 
    112 H112       22.6128  -32.8101  -44.9302 H         1 UNK         0.3472 
    113 H113       21.2743  -32.0167  -44.1288 H         1 UNK         0.3472 
    114 H114       20.1999  -33.1521  -42.0623 H         1 UNK         0.0970 
    115 H115       20.1373  -32.1624  -40.6325 H         1 UNK         0.0970 
    116 H116       18.4951  -32.4420  -43.7769 H         1 UNK         0.0612 
    117 H117       17.6600  -31.9555  -42.3155 H         1 UNK         0.0612 
@<TRIPOS>BOND
     1    1    2 1    
     2    1   62 1    
     3    1   63 1    
     4    1   64 1    
     5    2    3 2    
     6    2    4 am   BACKBONE|DICT|INTERRES
     7    4    5 1    
     8    4   65 1    
     9    5    6 1    
    10    5   25 1    
    11    5   66 1    
    12    6    7 1    
    13    6   67 1    
    14    6   68 1    
    15    7    8 1    
    16    8    9 1    
    17    8   69 1    
    18    8   70 1    
    19    9   10 ar   
    20    9   14 ar   
    21   10   11 ar   
    22   10   71 1    
    23   11   12 ar   
    24   11   61 1    
    25   12   13 ar   
    26   12   72 1    
    27   13   14 ar   
    28   13   15 1    
    29   14   73 1    
    30   15   16 1    
    31   15   74 1    
    32   15   75 1    
    33   16   17 1    
    34   17   18 1    
    35   17   76 1    
    36   17   77 1    
    37   18   19 1    
    38   18   27 1    
    39   18   78 1    
    40   19   20 am   BACKBONE|DICT|INTERRES
    41   19   79 1    
    42   20   21 2    
    43   20   22 1    
    44   22   23 1    
    45   22   24 1    
    46   22   80 1    
    47   23   81 1    
    48   23   82 1    
    49   23   83 1    
    50   24   25 am   BACKBONE|DICT|INTERRES
    51   24   84 1    
    52   25   26 2    
    53   27   28 2    
    54   27   29 am   BACKBONE|DICT|INTERRES
    55   29   30 1    
    56   29   85 1    
    57   30   31 1    
    58   30   32 1    
    59   30   86 1    
    60   31   87 1    
    61   31   88 1    
    62   31   89 1    
    63   32   33 2    
    64   32   34 am   BACKBONE|DICT|INTERRES
    65   34   35 1    
    66   34   90 1    
    67   35   36 1    
    68   35   37 1    
    69   35   91 1    
    70   36   92 1    
    71   36   93 1    
    72   36   94 1    
    73   37   38 2    
    74   37   39 am   BACKBONE|DICT|INTERRES
    75   39   40 1    
    76   39   95 1    
    77   40   41 1    
    78   40   42 1    
    79   40   96 1    
    80   41   97 1    
    81   41   98 1    
    82   41   99 1    
    83   42   43 2    
    84   42   44 am   BACKBONE|DICT|INTERRES
    85   44   45 1    
    86   44  100 1    
    87   45   46 1    
    88   45   47 1    
    89   45  101 1    
    90   46  102 1    
    91   46  103 1    
    92   46  104 1    
    93   47   48 2    
    94   47   49 am   BACKBONE|DICT|INTERRES
    95   49   50 1    
    96   49  105 1    
    97   50   51 1    
    98   50   52 1    
    99   50  106 1    
   100   51  107 1    
   101   51  108 1    
   102   51  109 1    
   103   52   53 2    
   104   52   54 am   BACKBONE|DICT|INTERRES
   105   54   55 1    
   106   54  110 1    
   107   55   56 1    
   108   55   59 1    
   109   55  111 1    
   110   56   57 am   BACKBONE|DICT|INTERRES
   111   56   58 2    
   112   57  112 1    
   113   57  113 1    
   114   59   60 1    
   115   59  114 1    
   116   59  115 1    
   117   60   61 1    
   118   61  116 1    
   119   61  117 1    
@<TRIPOS>SUBSTRUCTURE
     1 UNK         1 GROUP             0       ****    0 ROOT    
