@<TRIPOS>MOLECULE
3R8
117   119    1
SMALL
USER_CHARGES


@<TRIPOS>ATOM
      1 CA         13.4287  -22.5530  -45.9663 C.3       0 UNK        -0.2013 
      2 C          14.2447  -23.8202  -46.1753 C.2       0 UNK         0.4866 
      3 O          14.2351  -24.3809  -47.2720 O.2       0 UNK        -0.5176 
      4 N          14.9425  -24.2817  -45.1302 N.am      1 UNK        -0.4884 
      5 CA         15.8176  -25.4575  -45.1647 C.3       1 UNK         0.0853 
      6 C6         16.2532  -25.8916  -43.7445 C.3       10 UNK        -0.0849 
      7 S7         14.8904  -26.5577  -42.7342 S.3       10 UNK        -0.2776 
      8 C8         15.3034  -28.3426  -42.6888 C.3       10 UNK         0.0316 
      9 C9         16.6719  -28.7112  -42.1011 C.ar      10 UNK        -0.0863 
     10 C10        17.1844  -29.9886  -42.3587 C.ar      10 UNK        -0.1009 
     11 C11        18.4259  -30.3805  -41.8479 C.ar      10 UNK        -0.0712 
     12 C12        19.1606  -29.4834  -41.0729 C.ar      10 UNK        -0.0894 
     13 C13        18.6861  -28.1928  -40.8341 C.ar      10 UNK        -0.0745 
     14 C14        17.4312  -27.8226  -41.3250 C.ar      10 UNK        -0.0972 
     15 C15        19.5378  -27.1949  -40.0617 C.3       10 UNK         0.0209 
     16 S16        21.1071  -26.8232  -40.9169 S.3       10 UNK        -0.2568 
     17 C17        20.5409  -26.0648  -42.4832 C.3       10 UNK        -0.0983 
     18 CA         20.7056  -26.9941  -43.7152 C.3       3 UNK         0.0876 
     19 N          20.0015  -26.4560  -44.8828 N.am      3 UNK        -0.4424 
     20 C          19.7916  -27.1197  -46.0288 C.2       2 UNK         0.4918 
     21 O          20.1430  -28.2844  -46.2230 O.2       2 UNK        -0.4875 
     22 CA         18.9762  -26.3731  -47.0988 C.3       2 UNK         0.0481 
     23 CB         18.9760  -27.0930  -48.4603 C.3       2 UNK        -0.1831 
     24 N          17.6041  -26.2712  -46.6076 N.am      2 UNK        -0.4498 
     25 C          17.0894  -25.1991  -45.9945 C.2       1 UNK         0.5027 
     26 O          17.6336  -24.0920  -45.9651 O.2       1 UNK        -0.4969 
     27 C          22.1915  -27.2561  -44.0437 C.2       3 UNK         0.5005 
     28 O          22.8252  -26.4447  -44.7234 O.2       3 UNK        -0.5279 
     29 N          22.7234  -28.3685  -43.5228 N.am      4 UNK        -0.4463 
     30 CA         24.1043  -28.8220  -43.7140 C.3       4 UNK         0.0283 
     31 CB         24.1458  -30.3437  -43.4869 C.3       4 UNK        -0.1875 
     32 C          25.1403  -28.1058  -42.8226 C.2       4 UNK         0.4949 
     33 O          26.2974  -28.5262  -42.8069 O.2       4 UNK        -0.5039 
     34 N          24.7179  -27.0929  -42.0490 N.am      5 UNK        -0.4663 
     35 CA         25.4733  -26.2977  -41.0621 C.3       5 UNK         0.0242 
     36 CB         26.6961  -25.5996  -41.6893 C.3       5 UNK        -0.1982 
     37 C          25.8574  -27.0908  -39.8001 C.2       5 UNK         0.5017 
     38 O          25.6076  -26.6204  -38.6906 O.2       5 UNK        -0.5012 
     39 N          26.3827  -28.3080  -39.9915 N.am      6 UNK        -0.4439 
     40 CA         26.5056  -29.3504  -38.9660 C.3       6 UNK         0.0297 
     41 CB         27.4803  -30.4297  -39.4645 C.3       6 UNK        -0.2006 
     42 C          25.1440  -29.9806  -38.6033 C.2       6 UNK         0.4892 
     43 O          25.0394  -30.6406  -37.5702 O.2       6 UNK        -0.5089 
     44 N          24.1407  -29.7637  -39.4685 N.am      7 UNK        -0.4243 
     45 CA         22.7245  -30.1279  -39.3545 C.3       7 UNK         0.0196 
     46 CB         22.0765  -29.4500  -38.1293 C.3       7 UNK        -0.2007 
     47 C          22.4170  -31.6365  -39.4182 C.2       7 UNK         0.5020 
     48 O          21.2741  -32.0228  -39.1737 O.2       7 UNK        -0.5147 
     49 N          23.4110  -32.4649  -39.7662 N.am      8 UNK        -0.4734 
     50 CA         23.2549  -33.9150  -39.9137 C.3       8 UNK         0.0238 
     51 CB         24.6401  -34.5831  -39.9084 C.3       8 UNK        -0.1912 
     52 C          22.4667  -34.3050  -41.1758 C.2       8 UNK         0.5038 
     53 O          21.6459  -35.2209  -41.1142 O.2       8 UNK        -0.5046 
     54 N          22.7417  -33.6060  -42.2872 N.am      9 UNK        -0.4200 
     55 CA         22.1516  -33.8187  -43.6231 C.3       9 UNK         0.0839 
     56 C          22.4516  -35.2139  -44.2564 C.2       9 UNK         0.5513 
     57 N          23.4961  -35.9167  -43.8343 N.am      9 UNK        -0.7519 
     58 O          21.7534  -35.6558  -45.1656 O.2       9 UNK        -0.4960 
     59 C59        20.6463  -33.4302  -43.6913 C.3       10 UNK        -0.0876 
     60 S60        20.3623  -31.6629  -43.3326 S.3       10 UNK        -0.2414 
     61 C61        18.9905  -31.7622  -42.1417 C.3       10 UNK         0.0169 
     62 H62        13.7607  -21.7753  -46.6543 H         1 UNK         0.0903 
     63 H63        12.3740  -22.7502  -46.1575 H         1 UNK         0.0903 
     64 H64        13.5233  -22.1695  -44.9501 H         1 UNK         0.0903 
     65 H65        14.9205  -23.7793  -44.2541 H         1 UNK         0.3096 
     66 H66        15.2632  -26.2754  -45.6313 H         1 UNK         0.1121 
     67 H67        16.6962  -25.0512  -43.2058 H         1 UNK         0.0849 
     68 H68        17.0405  -26.6453  -43.8035 H         1 UNK         0.0849 
     69 H69        14.5335  -28.8563  -42.1115 H         1 UNK         0.0865 
     70 H70        15.2316  -28.7306  -43.7064 H         1 UNK         0.0865 
     71 H71        16.6147  -30.6822  -42.9624 H         1 UNK         0.1346 
     72 H72        20.1179  -29.7859  -40.6803 H         1 UNK         0.1412 
     73 H73        17.0613  -26.8299  -41.1124 H         1 UNK         0.1426 
     74 H74        19.7593  -27.6029  -39.0751 H         1 UNK         0.0716 
     75 H75        18.9959  -26.2629  -39.8932 H         1 UNK         0.0716 
     76 H76        21.0854  -25.1300  -42.6302 H         1 UNK         0.0695 
     77 H77        19.4934  -25.7807  -42.3698 H         1 UNK         0.0695 
     78 H78        20.2307  -27.9511  -43.4840 H         1 UNK         0.0983 
     79 H79        19.7000  -25.4943  -44.8222 H         1 UNK         0.3095 
     80 H80        19.4199  -25.3850  -47.2386 H         1 UNK         0.0454 
     81 H81        18.5419  -28.0915  -48.3953 H         1 UNK         0.0851 
     82 H82        19.9917  -27.2027  -48.8423 H         1 UNK         0.0851 
     83 H83        18.4097  -26.5311  -49.2031 H         1 UNK         0.0851 
     84 H84        17.0986  -27.1453  -46.5544 H         1 UNK         0.2976 
     85 H85        22.1257  -28.9711  -42.9751 H         1 UNK         0.3116 
     86 H86        24.3918  -28.6279  -44.7495 H         1 UNK         0.0646 
     87 H87        23.8706  -30.6086  -42.4661 H         1 UNK         0.0847 
     88 H88        25.1423  -30.7464  -43.6740 H         1 UNK         0.0847 
     89 H89        23.4639  -30.8568  -44.1646 H         1 UNK         0.0847 
     90 H90        23.7401  -26.8471  -42.1273 H         1 UNK         0.3040 
     91 H91        24.7877  -25.5136  -40.7349 H         1 UNK         0.1015 
     92 H92        27.4592  -26.3090  -42.0100 H         1 UNK         0.0786 
     93 H93        27.1661  -24.9256  -40.9720 H         1 UNK         0.0786 
     94 H94        26.4093  -25.0021  -42.5548 H         1 UNK         0.0786 
     95 H95        26.5693  -28.5754  -40.9564 H         1 UNK         0.3172 
     96 H96        26.9171  -28.9022  -38.0593 H         1 UNK         0.0595 
     97 H97        27.6098  -31.2149  -38.7181 H         1 UNK         0.0839 
     98 H98        28.4664  -30.0102  -39.6645 H         1 UNK         0.0839 
     99 H99        27.1264  -30.9047  -40.3805 H         1 UNK         0.0839 
    100 H100       24.3725  -29.2066  -40.2769 H         1 UNK         0.2998 
    101 H101       22.2634  -29.7009  -40.2439 H         1 UNK         0.0822 
    102 H102       20.9964  -29.6008  -38.1204 H         1 UNK         0.0787 
    103 H103       22.4659  -29.8497  -37.1926 H         1 UNK         0.0787 
    104 H104       22.2507  -28.3738  -38.1345 H         1 UNK         0.0787 
    105 H105       24.3314  -32.0772  -39.9112 H         1 UNK         0.3055 
    106 H106       22.6959  -34.2884  -39.0521 H         1 UNK         0.1106 
    107 H107       24.5504  -35.6665  -40.0017 H         1 UNK         0.0828 
    108 H108       25.2656  -34.2352  -40.7312 H         1 UNK         0.0828 
    109 H109       25.1711  -34.3843  -38.9772 H         1 UNK         0.0828 
    110 H110       23.4410  -32.8830  -42.2293 H         1 UNK         0.2931 
    111 H111       22.6810  -33.1266  -44.2780 H         1 UNK         0.0412 
    112 H112       23.6903  -36.8118  -44.2555 H         1 UNK         0.3472 
    113 H113       24.0899  -35.5646  -43.1013 H         1 UNK         0.3472 
    114 H114       20.0627  -34.0546  -43.0132 H         1 UNK         0.0970 
    115 H115       20.2432  -33.6140  -44.6886 H         1 UNK         0.0970 
    116 H116       19.3448  -32.2227  -41.2182 H         1 UNK         0.0612 
    117 H117       18.2120  -32.4146  -42.5401 H         1 UNK         0.0612 
@<TRIPOS>BOND
     1    1    2 1    
     2    1   62 1    
     3    1   63 1    
     4    1   64 1    
     5    2    3 2    
     6    2    4 am   BACKBONE|DICT|INTERRES
     7    4    5 1    
     8    4   65 1    
     9    5    6 1    
    10    5   25 1    
    11    5   66 1    
    12    6    7 1    
    13    6   67 1    
    14    6   68 1    
    15    7    8 1    
    16    8    9 1    
    17    8   69 1    
    18    8   70 1    
    19    9   10 ar   
    20    9   14 ar   
    21   10   11 ar   
    22   10   71 1    
    23   11   12 ar   
    24   11   61 1    
    25   12   13 ar   
    26   12   72 1    
    27   13   14 ar   
    28   13   15 1    
    29   14   73 1    
    30   15   16 1    
    31   15   74 1    
    32   15   75 1    
    33   16   17 1    
    34   17   18 1    
    35   17   76 1    
    36   17   77 1    
    37   18   19 1    
    38   18   27 1    
    39   18   78 1    
    40   19   20 am   BACKBONE|DICT|INTERRES
    41   19   79 1    
    42   20   21 2    
    43   20   22 1    
    44   22   23 1    
    45   22   24 1    
    46   22   80 1    
    47   23   81 1    
    48   23   82 1    
    49   23   83 1    
    50   24   25 am   BACKBONE|DICT|INTERRES
    51   24   84 1    
    52   25   26 2    
    53   27   28 2    
    54   27   29 am   BACKBONE|DICT|INTERRES
    55   29   30 1    
    56   29   85 1    
    57   30   31 1    
    58   30   32 1    
    59   30   86 1    
    60   31   87 1    
    61   31   88 1    
    62   31   89 1    
    63   32   33 2    
    64   32   34 am   BACKBONE|DICT|INTERRES
    65   34   35 1    
    66   34   90 1    
    67   35   36 1    
    68   35   37 1    
    69   35   91 1    
    70   36   92 1    
    71   36   93 1    
    72   36   94 1    
    73   37   38 2    
    74   37   39 am   BACKBONE|DICT|INTERRES
    75   39   40 1    
    76   39   95 1    
    77   40   41 1    
    78   40   42 1    
    79   40   96 1    
    80   41   97 1    
    81   41   98 1    
    82   41   99 1    
    83   42   43 2    
    84   42   44 am   BACKBONE|DICT|INTERRES
    85   44   45 1    
    86   44  100 1    
    87   45   46 1    
    88   45   47 1    
    89   45  101 1    
    90   46  102 1    
    91   46  103 1    
    92   46  104 1    
    93   47   48 2    
    94   47   49 am   BACKBONE|DICT|INTERRES
    95   49   50 1    
    96   49  105 1    
    97   50   51 1    
    98   50   52 1    
    99   50  106 1    
   100   51  107 1    
   101   51  108 1    
   102   51  109 1    
   103   52   53 2    
   104   52   54 am   BACKBONE|DICT|INTERRES
   105   54   55 1    
   106   54  110 1    
   107   55   56 1    
   108   55   59 1    
   109   55  111 1    
   110   56   57 am   BACKBONE|DICT|INTERRES
   111   56   58 2    
   112   57  112 1    
   113   57  113 1    
   114   59   60 1    
   115   59  114 1    
   116   59  115 1    
   117   60   61 1    
   118   61  116 1    
   119   61  117 1    
@<TRIPOS>SUBSTRUCTURE
     1 UNK         1 GROUP             0       ****    0 ROOT    
