@<TRIPOS>MOLECULE
3R8
117   119    1
SMALL
USER_CHARGES


@<TRIPOS>ATOM
      1 CA         18.9085  -21.4434  -45.8405 C.3       0 UNK        -0.2013 
      2 C          19.4052  -22.5678  -44.9444 C.2       0 UNK         0.4866 
      3 O          19.6806  -22.3362  -43.7672 O.2       0 UNK        -0.5176 
      4 N          19.5250  -23.7835  -45.4936 N.am      1 UNK        -0.4884 
      5 CA         19.9504  -24.9944  -44.7799 C.3       1 UNK         0.0853 
      6 C6         20.3400  -26.1372  -45.7555 C.3       10 UNK        -0.0849 
      7 S7         19.0653  -26.4996  -47.0150 S.3       10 UNK        -0.2776 
      8 C8         19.7663  -27.9700  -47.8274 C.3       10 UNK         0.0316 
      9 C9         19.5607  -29.2284  -46.9971 C.ar      10 UNK        -0.0863 
     10 C10        20.6411  -29.8518  -46.3664 C.ar      10 UNK        -0.1009 
     11 C11        20.4507  -31.0207  -45.6222 C.ar      10 UNK        -0.0712 
     12 C12        19.1663  -31.5626  -45.5046 C.ar      10 UNK        -0.0894 
     13 C13        18.0750  -30.9349  -46.1147 C.ar      10 UNK        -0.0745 
     14 C14        18.2828  -29.7793  -46.8734 C.ar      10 UNK        -0.0972 
     15 C15        16.6656  -31.4829  -45.9380 C.3       10 UNK         0.0209 
     16 S16        15.5951  -30.3156  -45.0322 S.3       10 UNK        -0.2568 
     17 C17        16.2861  -30.3887  -43.3435 C.3       10 UNK        -0.0983 
     18 CA         17.4582  -29.3956  -43.1039 C.3       3 UNK         0.0876 
     19 N          17.1560  -28.0084  -43.4700 N.am      3 UNK        -0.4424 
     20 C          16.3634  -27.1481  -42.8169 C.2       2 UNK         0.4918 
     21 O          15.6288  -27.4683  -41.8815 O.2       2 UNK        -0.4875 
     22 CA         16.4349  -25.6676  -43.2590 C.3       2 UNK         0.0481 
     23 CB         16.3212  -24.7110  -42.0541 C.3       2 UNK        -0.1831 
     24 N          17.6175  -25.3147  -44.0646 N.am      2 UNK        -0.4498 
     25 C          18.9139  -25.4726  -43.7430 C.2       1 UNK         0.5027 
     26 O          19.3041  -26.0016  -42.7013 O.2       1 UNK        -0.4969 
     27 C          18.0767  -29.5196  -41.6906 C.2       3 UNK         0.5005 
     28 O          17.8447  -30.5180  -41.0067 O.2       3 UNK        -0.5279 
     29 N          18.8681  -28.5179  -41.2783 N.am      4 UNK        -0.4463 
     30 CA         19.5251  -28.4465  -39.9722 C.3       4 UNK         0.0283 
     31 CB         18.5512  -27.8557  -38.9329 C.3       4 UNK        -0.1875 
     32 C          20.8440  -27.6611  -40.0731 C.2       4 UNK         0.4949 
     33 O          21.1731  -26.8932  -39.1672 O.2       4 UNK        -0.5039 
     34 N          21.5693  -27.8449  -41.1848 N.am      5 UNK        -0.4663 
     35 CA         22.8423  -27.1770  -41.4610 C.3       5 UNK         0.0242 
     36 CB         23.1061  -27.2192  -42.9765 C.3       5 UNK        -0.1982 
     37 C          24.0143  -27.8033  -40.6849 C.2       5 UNK         0.5017 
     38 O          23.8926  -28.9072  -40.1448 O.2       5 UNK        -0.5012 
     39 N          25.1584  -27.1026  -40.7069 N.am      6 UNK        -0.4439 
     40 CA         26.4300  -27.4721  -40.0658 C.3       6 UNK         0.0297 
     41 CB         27.4324  -26.3201  -40.2482 C.3       6 UNK        -0.2006 
     42 C          27.0505  -28.8040  -40.5379 C.2       6 UNK         0.4892 
     43 O          27.9577  -29.3103  -39.8772 O.2       6 UNK        -0.5089 
     44 N          26.5331  -29.3668  -41.6386 N.am      7 UNK        -0.4243 
     45 CA         26.8099  -30.7224  -42.1209 C.3       7 UNK         0.0196 
     46 CB         26.2724  -30.8470  -43.5572 C.3       7 UNK        -0.2007 
     47 C          26.2257  -31.8383  -41.2253 C.2       7 UNK         0.5020 
     48 O          26.5108  -33.0076  -41.4839 O.2       7 UNK        -0.5147 
     49 N          25.4260  -31.4702  -40.2101 N.am      8 UNK        -0.4734 
     50 CA         24.7154  -32.3351  -39.2600 C.3       8 UNK         0.0238 
     51 CB         25.6837  -33.2324  -38.4580 C.3       8 UNK        -0.1912 
     52 C          23.5817  -33.1093  -39.9514 C.2       8 UNK         0.5038 
     53 O          23.4881  -34.3321  -39.8253 O.2       8 UNK        -0.5046 
     54 N          22.7561  -32.3580  -40.6892 N.am      9 UNK        -0.4200 
     55 CA         21.5733  -32.8287  -41.4217 C.3       9 UNK         0.0839 
     56 C          20.5133  -33.4993  -40.5045 C.2       9 UNK         0.5513 
     57 N          19.8208  -34.5155  -41.0006 N.am      9 UNK        -0.7519 
     58 O          20.2885  -33.0820  -39.3702 O.2       9 UNK        -0.4960 
     59 C59        20.9293  -31.6719  -42.2246 C.3       10 UNK        -0.0876 
     60 S60        22.0901  -30.8915  -43.3940 S.3       10 UNK        -0.2414 
     61 C61        21.6418  -31.6978  -44.9610 C.3       10 UNK         0.0169 
     62 H62        18.7120  -21.7870  -46.8560 H         1 UNK         0.0903 
     63 H63        17.9859  -21.0245  -45.4398 H         1 UNK         0.0903 
     64 H64        19.6510  -20.6474  -45.8900 H         1 UNK         0.0903 
     65 H65        19.2903  -23.9205  -46.4677 H         1 UNK         0.3096 
     66 H66        20.8448  -24.7335  -44.2089 H         1 UNK         0.1121 
     67 H67        20.5725  -27.0537  -45.2094 H         1 UNK         0.0849 
     68 H68        21.2585  -25.8657  -46.2783 H         1 UNK         0.0849 
     69 H69        19.2813  -28.1008  -48.7959 H         1 UNK         0.0865 
     70 H70        20.8241  -27.8050  -48.0386 H         1 UNK         0.0865 
     71 H71        21.6341  -29.4324  -46.4562 H         1 UNK         0.1346 
     72 H72        19.0137  -32.4636  -44.9266 H         1 UNK         0.1412 
     73 H73        17.4417  -29.2933  -47.3496 H         1 UNK         0.1426 
     74 H74        16.6758  -32.4439  -45.4214 H         1 UNK         0.0716 
     75 H75        16.2318  -31.6675  -46.9217 H         1 UNK         0.0716 
     76 H76        16.6045  -31.4145  -43.1490 H         1 UNK         0.0695 
     77 H77        15.4749  -30.1863  -42.6421 H         1 UNK         0.0695 
     78 H78        18.2739  -29.6818  -43.7639 H         1 UNK         0.0983 
     79 H79        17.6859  -27.6437  -44.2480 H         1 UNK         0.3095 
     80 H80        15.5690  -25.5012  -43.9010 H         1 UNK         0.0454 
     81 H81        17.1277  -24.8695  -41.3372 H         1 UNK         0.0851 
     82 H82        15.3802  -24.8553  -41.5220 H         1 UNK         0.0851 
     83 H83        16.3546  -23.6684  -42.3700 H         1 UNK         0.0851 
     84 H84        17.4213  -24.9000  -44.9655 H         1 UNK         0.2976 
     85 H85        19.0052  -27.7044  -41.8770 H         1 UNK         0.3116 
     86 H86        19.7984  -29.4536  -39.6506 H         1 UNK         0.0646 
     87 H87        18.2595  -26.8378  -39.1940 H         1 UNK         0.0847 
     88 H88        19.0032  -27.8252  -37.9408 H         1 UNK         0.0847 
     89 H89        17.6432  -28.4535  -38.8533 H         1 UNK         0.0847 
     90 H90        21.2568  -28.5215  -41.8650 H         1 UNK         0.3040 
     91 H91        22.7531  -26.1323  -41.1538 H         1 UNK         0.1015 
     92 H92        23.2740  -28.2347  -43.3341 H         1 UNK         0.0786 
     93 H93        23.9855  -26.6327  -43.2445 H         1 UNK         0.0786 
     94 H94        22.2674  -26.8027  -43.5318 H         1 UNK         0.0786 
     95 H95        25.1588  -26.2181  -41.1952 H         1 UNK         0.3172 
     96 H96        26.2299  -27.5819  -38.9980 H         1 UNK         0.0595 
     97 H97        27.6547  -26.1411  -41.3010 H         1 UNK         0.0839 
     98 H98        28.3779  -26.5403  -39.7500 H         1 UNK         0.0839 
     99 H99        27.0555  -25.3912  -39.8197 H         1 UNK         0.0839 
    100 H100       25.7951  -28.8672  -42.1116 H         1 UNK         0.2998 
    101 H101       27.8929  -30.8608  -42.1431 H         1 UNK         0.0822 
    102 H102       26.7243  -30.1064  -44.2173 H         1 UNK         0.0787 
    103 H103       26.4958  -31.8293  -43.9761 H         1 UNK         0.0787 
    104 H104       25.1902  -30.7167  -43.5951 H         1 UNK         0.0787 
    105 H105       25.2020  -30.4828  -40.1322 H         1 UNK         0.3055 
    106 H106       24.2308  -31.6671  -38.5454 H         1 UNK         0.1106 
    107 H107       25.1531  -33.7612  -37.6654 H         1 UNK         0.0828 
    108 H108       26.1589  -33.9879  -39.0839 H         1 UNK         0.0828 
    109 H109       26.4701  -32.6442  -37.9853 H         1 UNK         0.0828 
    110 H110       22.9349  -31.3655  -40.7404 H         1 UNK         0.2931 
    111 H111       21.9254  -33.5801  -42.1315 H         1 UNK         0.0412 
    112 H112       19.1173  -34.9540  -40.4266 H         1 UNK         0.3472 
    113 H113       19.9961  -34.8646  -41.9301 H         1 UNK         0.3472 
    114 H114       20.0433  -32.0142  -42.7608 H         1 UNK         0.0970 
    115 H115       20.5861  -30.9008  -41.5360 H         1 UNK         0.0970 
    116 H116       21.4456  -32.7574  -44.7900 H         1 UNK         0.0612 
    117 H117       22.5008  -31.6531  -45.6321 H         1 UNK         0.0612 
@<TRIPOS>BOND
     1    1    2 1    
     2    1   62 1    
     3    1   63 1    
     4    1   64 1    
     5    2    3 2    
     6    2    4 am   BACKBONE|DICT|INTERRES
     7    4    5 1    
     8    4   65 1    
     9    5    6 1    
    10    5   25 1    
    11    5   66 1    
    12    6    7 1    
    13    6   67 1    
    14    6   68 1    
    15    7    8 1    
    16    8    9 1    
    17    8   69 1    
    18    8   70 1    
    19    9   10 ar   
    20    9   14 ar   
    21   10   11 ar   
    22   10   71 1    
    23   11   12 ar   
    24   11   61 1    
    25   12   13 ar   
    26   12   72 1    
    27   13   14 ar   
    28   13   15 1    
    29   14   73 1    
    30   15   16 1    
    31   15   74 1    
    32   15   75 1    
    33   16   17 1    
    34   17   18 1    
    35   17   76 1    
    36   17   77 1    
    37   18   19 1    
    38   18   27 1    
    39   18   78 1    
    40   19   20 am   BACKBONE|DICT|INTERRES
    41   19   79 1    
    42   20   21 2    
    43   20   22 1    
    44   22   23 1    
    45   22   24 1    
    46   22   80 1    
    47   23   81 1    
    48   23   82 1    
    49   23   83 1    
    50   24   25 am   BACKBONE|DICT|INTERRES
    51   24   84 1    
    52   25   26 2    
    53   27   28 2    
    54   27   29 am   BACKBONE|DICT|INTERRES
    55   29   30 1    
    56   29   85 1    
    57   30   31 1    
    58   30   32 1    
    59   30   86 1    
    60   31   87 1    
    61   31   88 1    
    62   31   89 1    
    63   32   33 2    
    64   32   34 am   BACKBONE|DICT|INTERRES
    65   34   35 1    
    66   34   90 1    
    67   35   36 1    
    68   35   37 1    
    69   35   91 1    
    70   36   92 1    
    71   36   93 1    
    72   36   94 1    
    73   37   38 2    
    74   37   39 am   BACKBONE|DICT|INTERRES
    75   39   40 1    
    76   39   95 1    
    77   40   41 1    
    78   40   42 1    
    79   40   96 1    
    80   41   97 1    
    81   41   98 1    
    82   41   99 1    
    83   42   43 2    
    84   42   44 am   BACKBONE|DICT|INTERRES
    85   44   45 1    
    86   44  100 1    
    87   45   46 1    
    88   45   47 1    
    89   45  101 1    
    90   46  102 1    
    91   46  103 1    
    92   46  104 1    
    93   47   48 2    
    94   47   49 am   BACKBONE|DICT|INTERRES
    95   49   50 1    
    96   49  105 1    
    97   50   51 1    
    98   50   52 1    
    99   50  106 1    
   100   51  107 1    
   101   51  108 1    
   102   51  109 1    
   103   52   53 2    
   104   52   54 am   BACKBONE|DICT|INTERRES
   105   54   55 1    
   106   54  110 1    
   107   55   56 1    
   108   55   59 1    
   109   55  111 1    
   110   56   57 am   BACKBONE|DICT|INTERRES
   111   56   58 2    
   112   57  112 1    
   113   57  113 1    
   114   59   60 1    
   115   59  114 1    
   116   59  115 1    
   117   60   61 1    
   118   61  116 1    
   119   61  117 1    
@<TRIPOS>SUBSTRUCTURE
     1 UNK         1 GROUP             0       ****    0 ROOT    
