@<TRIPOS>MOLECULE
3R8
117   119    1
SMALL
USER_CHARGES


@<TRIPOS>ATOM
      1 CA         14.1406  -25.5865  -39.1249 C.3       0 UNK        -0.2013 
      2 C          15.0465  -25.3122  -40.3161 C.2       0 UNK         0.4866 
      3 O          15.5326  -24.1911  -40.4713 O.2       0 UNK        -0.5176 
      4 N          15.2685  -26.3239  -41.1631 N.am      1 UNK        -0.4884 
      5 CA         16.1824  -26.2753  -42.3084 C.3       1 UNK         0.0853 
      6 C6         15.8299  -27.3637  -43.3562 C.3       10 UNK        -0.0849 
      7 S7         15.8288  -29.0755  -42.7078 S.3       10 UNK        -0.2776 
      8 C8         16.0160  -30.0676  -44.2241 C.3       10 UNK         0.0316 
      9 C9         17.4680  -30.4145  -44.5407 C.ar      10 UNK        -0.0863 
     10 C10        17.9478  -31.7127  -44.3296 C.ar      10 UNK        -0.1009 
     11 C11        19.2410  -32.0691  -44.7296 C.ar      10 UNK        -0.0712 
     12 C12        20.0679  -31.1044  -45.3163 C.ar      10 UNK        -0.0894 
     13 C13        19.6125  -29.7963  -45.5086 C.ar      10 UNK        -0.0745 
     14 C14        18.3101  -29.4645  -45.1247 C.ar      10 UNK        -0.0972 
     15 C15        20.4713  -28.7481  -46.2076 C.3       10 UNK         0.0209 
     16 S16        22.1894  -28.6607  -45.5997 S.3       10 UNK        -0.2568 
     17 C17        22.6251  -26.9645  -46.1349 C.3       10 UNK        -0.0983 
     18 CA         22.9310  -25.9745  -44.9712 C.3       3 UNK         0.0876 
     19 N          22.0083  -26.0902  -43.8474 N.am      3 UNK        -0.4424 
     20 C          20.7421  -25.6802  -43.8120 C.2       2 UNK         0.4918 
     21 O          20.1580  -25.1293  -44.7488 O.2       2 UNK        -0.4875 
     22 CA         20.0165  -25.9137  -42.4852 C.3       2 UNK         0.0481 
     23 CB         20.4365  -24.8632  -41.4372 C.3       2 UNK        -0.1831 
     24 N          18.5739  -25.8771  -42.7074 N.am      2 UNK        -0.4498 
     25 C          17.6578  -26.3484  -41.8548 C.2       1 UNK         0.5027 
     26 O          17.9461  -26.8361  -40.7594 O.2       1 UNK        -0.4969 
     27 C          24.3596  -26.1107  -44.4169 C.2       3 UNK         0.5005 
     28 O          24.5367  -26.3621  -43.2210 O.2       3 UNK        -0.5279 
     29 N          25.3622  -25.9518  -45.2924 N.am      4 UNK        -0.4463 
     30 CA         26.7855  -26.1009  -44.9659 C.3       4 UNK         0.0283 
     31 CB         27.6308  -25.6479  -46.1676 C.3       4 UNK        -0.1875 
     32 C          27.1828  -27.5272  -44.5371 C.2       4 UNK         0.4949 
     33 O          28.2030  -27.6875  -43.8668 O.2       4 UNK        -0.5039 
     34 N          26.3814  -28.5295  -44.9271 N.am      5 UNK        -0.4663 
     35 CA         26.5504  -29.9283  -44.5367 C.3       5 UNK         0.0242 
     36 CB         25.6594  -30.8214  -45.4164 C.3       5 UNK        -0.1982 
     37 C          26.2575  -30.1653  -43.0459 C.2       5 UNK         0.5017 
     38 O          27.0546  -30.8285  -42.3814 O.2       5 UNK        -0.5012 
     39 N          25.1337  -29.6250  -42.5534 N.am      6 UNK        -0.4439 
     40 CA         24.6252  -29.7851  -41.1912 C.3       6 UNK         0.0297 
     41 CB         24.3427  -31.2728  -40.8879 C.3       6 UNK        -0.2006 
     42 C          23.3325  -28.9763  -41.0237 C.2       6 UNK         0.4892 
     43 O          22.6787  -28.6377  -42.0130 O.2       6 UNK        -0.5089 
     44 N          22.9555  -28.7350  -39.7622 N.am      7 UNK        -0.4243 
     45 CA         21.6473  -28.2088  -39.3785 C.3       7 UNK         0.0196 
     46 CB         21.7398  -27.5763  -37.9794 C.3       7 UNK        -0.2007 
     47 C          20.6196  -29.3504  -39.4188 C.2       7 UNK         0.5020 
     48 O          20.6277  -30.2056  -38.5307 O.2       7 UNK        -0.5147 
     49 N          19.8036  -29.3776  -40.4806 N.am      8 UNK        -0.4734 
     50 CA         18.7199  -30.3339  -40.7598 C.3       8 UNK         0.0238 
     51 CB         17.5738  -30.1545  -39.7398 C.3       8 UNK        -0.1912 
     52 C          19.1570  -31.8094  -40.8581 C.2       8 UNK         0.5038 
     53 O          18.3096  -32.6967  -40.7399 O.2       8 UNK        -0.5046 
     54 N          20.4624  -32.0489  -41.0423 N.am      9 UNK        -0.4200 
     55 CA         21.1139  -33.3641  -40.9356 C.3       9 UNK         0.0839 
     56 C          21.0215  -34.0024  -39.5143 C.2       9 UNK         0.5513 
     57 N          20.8434  -33.2211  -38.4539 N.am      9 UNK        -0.7519 
     58 O          21.1450  -35.2149  -39.3601 O.2       9 UNK        -0.4960 
     59 C59        20.7185  -34.3315  -42.0853 C.3       10 UNK        -0.0876 
     60 S60        21.2695  -33.7137  -43.7133 S.3       10 UNK        -0.2414 
     61 C61        19.7066  -33.5177  -44.6309 C.3       10 UNK         0.0169 
     62 H62        13.2814  -24.9166  -39.1440 H         1 UNK         0.0903 
     63 H63        13.7712  -26.6119  -39.1212 H         1 UNK         0.0903 
     64 H64        14.6836  -25.4187  -38.1951 H         1 UNK         0.0903 
     65 H65        14.8791  -27.2363  -40.9707 H         1 UNK         0.3096 
     66 H66        16.0506  -25.3034  -42.7902 H         1 UNK         0.1121 
     67 H67        14.8337  -27.1653  -43.7550 H         1 UNK         0.0849 
     68 H68        16.4979  -27.2872  -44.2122 H         1 UNK         0.0849 
     69 H69        15.4346  -30.9830  -44.1031 H         1 UNK         0.0865 
     70 H70        15.5663  -29.5441  -45.0693 H         1 UNK         0.0865 
     71 H71        17.2969  -32.4605  -43.8968 H         1 UNK         0.1346 
     72 H72        21.0598  -31.3804  -45.6472 H         1 UNK         0.1412 
     73 H73        17.9413  -28.4693  -45.3205 H         1 UNK         0.1426 
     74 H74        20.0083  -27.7674  -46.0880 H         1 UNK         0.0716 
     75 H75        20.4846  -28.9552  -47.2783 H         1 UNK         0.0716 
     76 H76        23.4554  -27.0334  -46.8389 H         1 UNK         0.0695 
     77 H77        21.8061  -26.5544  -46.7268 H         1 UNK         0.0695 
     78 H78        22.8556  -24.9552  -45.3565 H         1 UNK         0.0983 
     79 H79        22.4246  -26.5454  -43.0407 H         1 UNK         0.3095 
     80 H80        20.2869  -26.9109  -42.1344 H         1 UNK         0.0454 
     81 H81        21.5162  -24.8694  -41.2826 H         1 UNK         0.0851 
     82 H82        20.1566  -23.8556  -41.7466 H         1 UNK         0.0851 
     83 H83        19.9766  -25.0540  -40.4677 H         1 UNK         0.0851 
     84 H84        18.3021  -25.5002  -43.6076 H         1 UNK         0.2976 
     85 H85        25.1425  -25.7292  -46.2532 H         1 UNK         0.3116 
     86 H86        27.0046  -25.4385  -44.1257 H         1 UNK         0.0646 
     87 H87        28.6963  -25.7183  -45.9435 H         1 UNK         0.0847 
     88 H88        27.4268  -24.6097  -46.4301 H         1 UNK         0.0847 
     89 H89        27.4436  -26.2625  -47.0490 H         1 UNK         0.0847 
     90 H90        25.5691  -28.3036  -45.4817 H         1 UNK         0.3040 
     91 H91        27.5917  -30.2058  -44.7171 H         1 UNK         0.1015 
     92 H92        25.9089  -30.7147  -46.4722 H         1 UNK         0.0786 
     93 H93        24.6011  -30.5865  -45.2960 H         1 UNK         0.0786 
     94 H94        25.7890  -31.8735  -45.1587 H         1 UNK         0.0786 
     95 H95        24.5428  -29.0539  -43.1475 H         1 UNK         0.3172 
     96 H96        25.3687  -29.3970  -40.4924 H         1 UNK         0.0595 
     97 H97        25.2637  -31.8426  -40.7691 H         1 UNK         0.0839 
     98 H98        23.7731  -31.7307  -41.6964 H         1 UNK         0.0839 
     99 H99        23.7757  -31.4028  -39.9649 H         1 UNK         0.0839 
    100 H100       23.5359  -29.0757  -39.0090 H         1 UNK         0.2998 
    101 H101       21.3496  -27.4264  -40.0785 H         1 UNK         0.0822 
    102 H102       22.4449  -26.7451  -37.9670 H         1 UNK         0.0787 
    103 H103       20.7707  -27.1843  -37.6677 H         1 UNK         0.0787 
    104 H104       22.0579  -28.2972  -37.2251 H         1 UNK         0.0787 
    105 H105       19.9041  -28.6423  -41.1665 H         1 UNK         0.3055 
    106 H106       18.3408  -30.0744  -41.7477 H         1 UNK         0.1106 
    107 H107       17.8710  -30.4683  -38.7388 H         1 UNK         0.0828 
    108 H108       17.2472  -29.1171  -39.6828 H         1 UNK         0.0828 
    109 H109       16.7014  -30.7452  -40.0216 H         1 UNK         0.0828 
    110 H110       21.0762  -31.2544  -41.1377 H         1 UNK         0.2931 
    111 H111       22.1781  -33.1709  -41.0500 H         1 UNK         0.0412 
    112 H112       20.7959  -33.6387  -37.5383 H         1 UNK         0.3472 
    113 H113       20.7497  -32.2151  -38.5538 H         1 UNK         0.3472 
    114 H114       19.6455  -34.5236  -42.0801 H         1 UNK         0.0970 
    115 H115       21.1930  -35.3045  -41.9475 H         1 UNK         0.0970 
    116 H116       18.9316  -34.1523  -44.1997 H         1 UNK         0.0612 
    117 H117       19.8636  -33.8899  -45.6441 H         1 UNK         0.0612 
@<TRIPOS>BOND
     1    1    2 1    
     2    1   62 1    
     3    1   63 1    
     4    1   64 1    
     5    2    3 2    
     6    2    4 am   BACKBONE|DICT|INTERRES
     7    4    5 1    
     8    4   65 1    
     9    5    6 1    
    10    5   25 1    
    11    5   66 1    
    12    6    7 1    
    13    6   67 1    
    14    6   68 1    
    15    7    8 1    
    16    8    9 1    
    17    8   69 1    
    18    8   70 1    
    19    9   10 ar   
    20    9   14 ar   
    21   10   11 ar   
    22   10   71 1    
    23   11   12 ar   
    24   11   61 1    
    25   12   13 ar   
    26   12   72 1    
    27   13   14 ar   
    28   13   15 1    
    29   14   73 1    
    30   15   16 1    
    31   15   74 1    
    32   15   75 1    
    33   16   17 1    
    34   17   18 1    
    35   17   76 1    
    36   17   77 1    
    37   18   19 1    
    38   18   27 1    
    39   18   78 1    
    40   19   20 am   BACKBONE|DICT|INTERRES
    41   19   79 1    
    42   20   21 2    
    43   20   22 1    
    44   22   23 1    
    45   22   24 1    
    46   22   80 1    
    47   23   81 1    
    48   23   82 1    
    49   23   83 1    
    50   24   25 am   BACKBONE|DICT|INTERRES
    51   24   84 1    
    52   25   26 2    
    53   27   28 2    
    54   27   29 am   BACKBONE|DICT|INTERRES
    55   29   30 1    
    56   29   85 1    
    57   30   31 1    
    58   30   32 1    
    59   30   86 1    
    60   31   87 1    
    61   31   88 1    
    62   31   89 1    
    63   32   33 2    
    64   32   34 am   BACKBONE|DICT|INTERRES
    65   34   35 1    
    66   34   90 1    
    67   35   36 1    
    68   35   37 1    
    69   35   91 1    
    70   36   92 1    
    71   36   93 1    
    72   36   94 1    
    73   37   38 2    
    74   37   39 am   BACKBONE|DICT|INTERRES
    75   39   40 1    
    76   39   95 1    
    77   40   41 1    
    78   40   42 1    
    79   40   96 1    
    80   41   97 1    
    81   41   98 1    
    82   41   99 1    
    83   42   43 2    
    84   42   44 am   BACKBONE|DICT|INTERRES
    85   44   45 1    
    86   44  100 1    
    87   45   46 1    
    88   45   47 1    
    89   45  101 1    
    90   46  102 1    
    91   46  103 1    
    92   46  104 1    
    93   47   48 2    
    94   47   49 am   BACKBONE|DICT|INTERRES
    95   49   50 1    
    96   49  105 1    
    97   50   51 1    
    98   50   52 1    
    99   50  106 1    
   100   51  107 1    
   101   51  108 1    
   102   51  109 1    
   103   52   53 2    
   104   52   54 am   BACKBONE|DICT|INTERRES
   105   54   55 1    
   106   54  110 1    
   107   55   56 1    
   108   55   59 1    
   109   55  111 1    
   110   56   57 am   BACKBONE|DICT|INTERRES
   111   56   58 2    
   112   57  112 1    
   113   57  113 1    
   114   59   60 1    
   115   59  114 1    
   116   59  115 1    
   117   60   61 1    
   118   61  116 1    
   119   61  117 1    
@<TRIPOS>SUBSTRUCTURE
     1 UNK         1 GROUP             0       ****    0 ROOT    
