@<TRIPOS>MOLECULE
3R8
117   119    1
SMALL
USER_CHARGES


@<TRIPOS>ATOM
      1 CA         11.6333  -27.1489  -44.5302 C.3       0 UNK        -0.2013 
      2 C          12.8873  -26.2889  -44.5957 C.2       0 UNK         0.4866 
      3 O          12.8241  -25.1663  -45.0975 O.2       0 UNK        -0.5176 
      4 N          14.0105  -26.8120  -44.0813 N.am      1 UNK        -0.4884 
      5 CA         15.3576  -26.2208  -44.0734 C.3       1 UNK         0.0853 
      6 C6         15.3916  -24.7837  -43.4799 C.3       10 UNK        -0.0849 
      7 S7         17.0387  -24.2623  -42.8923 S.3       10 UNK        -0.2776 
      8 C8         17.1453  -25.0805  -41.2698 C.3       10 UNK         0.0316 
      9 C9         18.3459  -26.0129  -41.2157 C.ar      10 UNK        -0.0863 
     10 C10        18.1821  -27.3989  -41.3083 C.ar      10 UNK        -0.1009 
     11 C11        19.2921  -28.2469  -41.2392 C.ar      10 UNK        -0.0712 
     12 C12        20.5671  -27.7021  -41.0527 C.ar      10 UNK        -0.0894 
     13 C13        20.7480  -26.3169  -41.0225 C.ar      10 UNK        -0.0745 
     14 C14        19.6310  -25.4791  -41.0824 C.ar      10 UNK        -0.0972 
     15 C15        22.1492  -25.7194  -40.9725 C.3       10 UNK         0.0209 
     16 S16        23.1564  -26.1349  -42.4418 S.3       10 UNK        -0.2568 
     17 C17        22.0326  -25.7900  -43.8451 C.3       10 UNK        -0.0983 
     18 CA         21.4053  -27.1041  -44.3915 C.3       3 UNK         0.0876 
     19 N          20.0692  -26.9381  -44.9677 N.am      3 UNK        -0.4424 
     20 C          19.7587  -26.2653  -46.0854 C.2       2 UNK         0.4918 
     21 O          20.5528  -25.5858  -46.7348 O.2       2 UNK        -0.4875 
     22 CA         18.3056  -26.3859  -46.5622 C.3       2 UNK         0.0481 
     23 CB         18.1348  -27.6981  -47.3583 C.3       2 UNK        -0.1831 
     24 N          17.3937  -26.3129  -45.4175 N.am      2 UNK        -0.4498 
     25 C          16.0555  -26.3276  -45.4502 C.2       1 UNK         0.5027 
     26 O          15.3968  -26.4304  -46.4880 O.2       1 UNK        -0.4969 
     27 C          22.3152  -27.9226  -45.3300 C.2       3 UNK         0.5005 
     28 O          23.3260  -27.4249  -45.8301 O.2       3 UNK        -0.5279 
     29 N          21.9130  -29.1835  -45.5571 N.am      4 UNK        -0.4463 
     30 CA         22.6683  -30.1856  -46.3171 C.3       4 UNK         0.0283 
     31 CB         21.7933  -31.4335  -46.5173 C.3       4 UNK        -0.1875 
     32 C          24.0008  -30.5673  -45.6457 C.2       4 UNK         0.4949 
     33 O          24.9574  -30.9067  -46.3421 O.2       4 UNK        -0.5039 
     34 N          24.0408  -30.4763  -44.3127 N.am      5 UNK        -0.4663 
     35 CA         25.2265  -30.5924  -43.4775 C.3       5 UNK         0.0242 
     36 CB         25.5242  -32.0706  -43.1668 C.3       5 UNK        -0.1982 
     37 C          24.9499  -29.8078  -42.1933 C.2       5 UNK         0.5017 
     38 O          23.8108  -29.8157  -41.7162 O.2       5 UNK        -0.5012 
     39 N          25.9959  -29.1855  -41.6341 N.am      6 UNK        -0.4439 
     40 CA         25.9372  -28.4462  -40.3674 C.3       6 UNK         0.0297 
     41 CB         27.2479  -27.6707  -40.1624 C.3       6 UNK        -0.2006 
     42 C          25.6459  -29.3477  -39.1543 C.2       6 UNK         0.4892 
     43 O          25.0514  -28.8824  -38.1812 O.2       6 UNK        -0.5089 
     44 N          26.0211  -30.6314  -39.2508 N.am      7 UNK        -0.4243 
     45 CA         25.7049  -31.6945  -38.2957 C.3       7 UNK         0.0196 
     46 CB         26.7264  -32.8345  -38.4677 C.3       7 UNK        -0.2007 
     47 C          24.2472  -32.1753  -38.4496 C.2       7 UNK         0.5020 
     48 O          24.0095  -33.3548  -38.7164 O.2       7 UNK        -0.5147 
     49 N          23.3010  -31.2367  -38.3036 N.am      8 UNK        -0.4734 
     50 CA         21.8426  -31.4092  -38.3317 C.3       8 UNK         0.0238 
     51 CB         21.3715  -32.0703  -37.0190 C.3       8 UNK        -0.1912 
     52 C          21.3170  -32.1410  -39.5839 C.2       8 UNK         0.5038 
     53 O          20.4054  -32.9629  -39.4697 O.2       8 UNK        -0.5046 
     54 N          21.8969  -31.8300  -40.7529 N.am      9 UNK        -0.4200 
     55 CA         21.5915  -32.4495  -42.0550 C.3       9 UNK         0.0839 
     56 C          21.9489  -33.9654  -42.1534 C.2       9 UNK         0.5513 
     57 N          22.7471  -34.5239  -41.2499 N.am      9 UNK        -0.7519 
     58 O          21.5298  -34.6427  -43.0884 O.2       9 UNK        -0.4960 
     59 C59        20.1556  -32.1186  -42.5641 C.3       10 UNK        -0.0876 
     60 S60        19.9431  -30.3402  -42.9118 S.3       10 UNK        -0.2414 
     61 C61        19.1303  -29.7507  -41.3905 C.3       10 UNK         0.0169 
     62 H62        10.8540  -26.6338  -43.9691 H         1 UNK         0.0903 
     63 H63        11.2587  -27.3413  -45.5352 H         1 UNK         0.0903 
     64 H64        11.8188  -28.1088  -44.0485 H         1 UNK         0.0903 
     65 H65        13.9671  -27.7514  -43.7098 H         1 UNK         0.3096 
     66 H66        15.9208  -26.8683  -43.4000 H         1 UNK         0.1121 
     67 H67        14.6942  -24.7031  -42.6444 H         1 UNK         0.0849 
     68 H68        15.0489  -24.0548  -44.2166 H         1 UNK         0.0849 
     69 H69        17.2385  -24.3192  -40.4938 H         1 UNK         0.0865 
     70 H70        16.2268  -25.6257  -41.0474 H         1 UNK         0.0865 
     71 H71        17.1935  -27.8184  -41.4341 H         1 UNK         0.1346 
     72 H72        21.4296  -28.3548  -41.0104 H         1 UNK         0.1412 
     73 H73        19.7597  -24.4056  -41.0485 H         1 UNK         0.1426 
     74 H74        22.6618  -26.0816  -40.0802 H         1 UNK         0.0716 
     75 H75        22.1025  -24.6333  -40.8804 H         1 UNK         0.0716 
     76 H76        22.5728  -25.2469  -44.6223 H         1 UNK         0.0695 
     77 H77        21.2521  -25.1084  -43.5050 H         1 UNK         0.0695 
     78 H78        21.2430  -27.7584  -43.5396 H         1 UNK         0.0983 
     79 H79        19.3465  -27.4915  -44.5311 H         1 UNK         0.3095 
     80 H80        18.0950  -25.5399  -47.2194 H         1 UNK         0.0454 
     81 H81        17.1714  -27.7442  -47.8648 H         1 UNK         0.0851 
     82 H82        18.2174  -28.5758  -46.7166 H         1 UNK         0.0851 
     83 H83        18.8985  -27.7880  -48.1322 H         1 UNK         0.0851 
     84 H84        17.8337  -26.1070  -44.5293 H         1 UNK         0.2976 
     85 H85        21.0627  -29.5053  -45.1149 H         1 UNK         0.3116 
     86 H86        22.8980  -29.7623  -47.2972 H         1 UNK         0.0646 
     87 H87        21.5236  -31.8965  -45.5671 H         1 UNK         0.0847 
     88 H88        20.8723  -31.1937  -47.0489 H         1 UNK         0.0847 
     89 H89        22.3188  -32.1861  -47.1069 H         1 UNK         0.0847 
     90 H90        23.2188  -30.1594  -43.8141 H         1 UNK         0.3040 
     91 H91        26.0758  -30.1440  -43.9984 H         1 UNK         0.1015 
     92 H92        26.4310  -32.1694  -42.5692 H         1 UNK         0.0786 
     93 H93        25.6757  -32.6467  -44.0798 H         1 UNK         0.0786 
     94 H94        24.7140  -32.5390  -42.6076 H         1 UNK         0.0786 
     95 H95        26.8951  -29.2276  -42.0932 H         1 UNK         0.3172 
     96 H96        25.1211  -27.7238  -40.4402 H         1 UNK         0.0595 
     97 H97        28.1092  -28.3372  -40.1014 H         1 UNK         0.0839 
     98 H98        27.2175  -27.0931  -39.2373 H         1 UNK         0.0839 
     99 H99        27.4234  -26.9654  -40.9751 H         1 UNK         0.0839 
    100 H100       26.4838  -30.9192  -40.0999 H         1 UNK         0.2998 
    101 H101       25.8105  -31.3009  -37.2824 H         1 UNK         0.0822 
    102 H102       26.5459  -33.6326  -37.7462 H         1 UNK         0.0787 
    103 H103       27.7456  -32.4817  -38.3086 H         1 UNK         0.0787 
    104 H104       26.6751  -33.2771  -39.4634 H         1 UNK         0.0787 
    105 H105       23.6313  -30.2899  -38.1369 H         1 UNK         0.3055 
    106 H106       21.4128  -30.4068  -38.3710 H         1 UNK         0.1106 
    107 H107       21.7350  -33.0950  -36.9326 H         1 UNK         0.0828 
    108 H108       21.7200  -31.5163  -36.1475 H         1 UNK         0.0828 
    109 H109       20.2826  -32.1043  -36.9632 H         1 UNK         0.0828 
    110 H110       22.6336  -31.1322  -40.7732 H         1 UNK         0.2931 
    111 H111       22.2841  -31.9824  -42.7535 H         1 UNK         0.0412 
    112 H112       23.0959  -33.9952  -40.4580 H         1 UNK         0.3472 
    113 H113       22.9779  -35.5006  -41.3374 H         1 UNK         0.3472 
    114 H114       19.9495  -32.6413  -43.4996 H         1 UNK         0.0970 
    115 H115       19.3943  -32.4610  -41.8621 H         1 UNK         0.0970 
    116 H116       18.0773  -30.0346  -41.4176 H         1 UNK         0.0612 
    117 H117       19.5572  -30.2329  -40.5144 H         1 UNK         0.0612 
@<TRIPOS>BOND
     1    1    2 1    
     2    1   62 1    
     3    1   63 1    
     4    1   64 1    
     5    2    3 2    
     6    2    4 am   BACKBONE|DICT|INTERRES
     7    4    5 1    
     8    4   65 1    
     9    5    6 1    
    10    5   25 1    
    11    5   66 1    
    12    6    7 1    
    13    6   67 1    
    14    6   68 1    
    15    7    8 1    
    16    8    9 1    
    17    8   69 1    
    18    8   70 1    
    19    9   10 ar   
    20    9   14 ar   
    21   10   11 ar   
    22   10   71 1    
    23   11   12 ar   
    24   11   61 1    
    25   12   13 ar   
    26   12   72 1    
    27   13   14 ar   
    28   13   15 1    
    29   14   73 1    
    30   15   16 1    
    31   15   74 1    
    32   15   75 1    
    33   16   17 1    
    34   17   18 1    
    35   17   76 1    
    36   17   77 1    
    37   18   19 1    
    38   18   27 1    
    39   18   78 1    
    40   19   20 am   BACKBONE|DICT|INTERRES
    41   19   79 1    
    42   20   21 2    
    43   20   22 1    
    44   22   23 1    
    45   22   24 1    
    46   22   80 1    
    47   23   81 1    
    48   23   82 1    
    49   23   83 1    
    50   24   25 am   BACKBONE|DICT|INTERRES
    51   24   84 1    
    52   25   26 2    
    53   27   28 2    
    54   27   29 am   BACKBONE|DICT|INTERRES
    55   29   30 1    
    56   29   85 1    
    57   30   31 1    
    58   30   32 1    
    59   30   86 1    
    60   31   87 1    
    61   31   88 1    
    62   31   89 1    
    63   32   33 2    
    64   32   34 am   BACKBONE|DICT|INTERRES
    65   34   35 1    
    66   34   90 1    
    67   35   36 1    
    68   35   37 1    
    69   35   91 1    
    70   36   92 1    
    71   36   93 1    
    72   36   94 1    
    73   37   38 2    
    74   37   39 am   BACKBONE|DICT|INTERRES
    75   39   40 1    
    76   39   95 1    
    77   40   41 1    
    78   40   42 1    
    79   40   96 1    
    80   41   97 1    
    81   41   98 1    
    82   41   99 1    
    83   42   43 2    
    84   42   44 am   BACKBONE|DICT|INTERRES
    85   44   45 1    
    86   44  100 1    
    87   45   46 1    
    88   45   47 1    
    89   45  101 1    
    90   46  102 1    
    91   46  103 1    
    92   46  104 1    
    93   47   48 2    
    94   47   49 am   BACKBONE|DICT|INTERRES
    95   49   50 1    
    96   49  105 1    
    97   50   51 1    
    98   50   52 1    
    99   50  106 1    
   100   51  107 1    
   101   51  108 1    
   102   51  109 1    
   103   52   53 2    
   104   52   54 am   BACKBONE|DICT|INTERRES
   105   54   55 1    
   106   54  110 1    
   107   55   56 1    
   108   55   59 1    
   109   55  111 1    
   110   56   57 am   BACKBONE|DICT|INTERRES
   111   56   58 2    
   112   57  112 1    
   113   57  113 1    
   114   59   60 1    
   115   59  114 1    
   116   59  115 1    
   117   60   61 1    
   118   61  116 1    
   119   61  117 1    
@<TRIPOS>SUBSTRUCTURE
     1 UNK         1 GROUP             0       ****    0 ROOT    
