@<TRIPOS>MOLECULE
3R8
117   119    1
SMALL
USER_CHARGES


@<TRIPOS>ATOM
      1 CA         17.7388  -28.4297  -40.9070 C.3       0 UNK        -0.2013 
      2 C          17.3020  -27.0980  -41.4954 C.2       0 UNK         0.4866 
      3 O          16.4767  -26.4083  -40.8956 O.2       0 UNK        -0.5176 
      4 N          17.8507  -26.7275  -42.6567 N.am      1 UNK        -0.4884 
      5 CA         17.5760  -25.4646  -43.3395 C.3       1 UNK         0.0853 
      6 C6         16.2731  -25.5003  -44.1895 C.3       10 UNK        -0.0849 
      7 S7         16.2779  -26.6191  -45.6372 S.3       10 UNK        -0.2776 
      8 C8         15.5731  -28.1671  -44.9700 C.3       10 UNK         0.0316 
      9 C9         16.6104  -29.2232  -44.5861 C.ar      10 UNK        -0.0863 
     10 C10        16.3301  -30.1075  -43.5394 C.ar      10 UNK        -0.1009 
     11 C11        17.2084  -31.1492  -43.2229 C.ar      10 UNK        -0.0712 
     12 C12        18.3859  -31.2920  -43.9635 C.ar      10 UNK        -0.0894 
     13 C13        18.6996  -30.4090  -45.0001 C.ar      10 UNK        -0.0745 
     14 C14        17.7976  -29.3842  -45.3116 C.ar      10 UNK        -0.0972 
     15 C15        19.9685  -30.6552  -45.8184 C.3       10 UNK         0.0209 
     16 S16        20.6729  -29.1771  -46.6267 S.3       10 UNK        -0.2568 
     17 C17        21.7830  -28.5297  -45.3371 C.3       10 UNK        -0.0983 
     18 CA         22.3881  -27.1640  -45.7566 C.3       3 UNK         0.0876 
     19 N          21.4289  -26.0704  -45.6093 N.am      3 UNK        -0.4424 
     20 C          20.8183  -25.4191  -46.6033 C.2       2 UNK         0.4918 
     21 O          20.9501  -25.7074  -47.7943 O.2       2 UNK        -0.4875 
     22 CA         19.9054  -24.2455  -46.1892 C.3       2 UNK         0.0481 
     23 CB         19.3386  -23.4810  -47.4001 C.3       2 UNK        -0.1831 
     24 N          18.7897  -24.6862  -45.3487 N.am      2 UNK        -0.4498 
     25 C          18.8605  -24.9917  -44.0476 C.2       1 UNK         0.5027 
     26 O          19.9039  -24.9083  -43.3972 O.2       1 UNK        -0.4969 
     27 C          23.6236  -26.8153  -44.9111 C.2       3 UNK         0.5005 
     28 O          23.4899  -26.1891  -43.8569 O.2       3 UNK        -0.5279 
     29 N          24.8080  -27.2407  -45.3736 N.am      4 UNK        -0.4463 
     30 CA         26.1015  -26.9651  -44.7334 C.3       4 UNK         0.0283 
     31 CB         27.2369  -27.3718  -45.6869 C.3       4 UNK        -0.1875 
     32 C          26.2846  -27.6467  -43.3649 C.2       4 UNK         0.4949 
     33 O          27.0415  -27.1402  -42.5369 O.2       4 UNK        -0.5039 
     34 N          25.5869  -28.7688  -43.1532 N.am      5 UNK        -0.4663 
     35 CA         25.5799  -29.5443  -41.9122 C.3       5 UNK         0.0242 
     36 CB         26.2088  -30.9253  -42.1786 C.3       5 UNK        -0.1982 
     37 C          24.1532  -29.6493  -41.3497 C.2       5 UNK         0.5017 
     38 O          23.7995  -30.6863  -40.7858 O.2       5 UNK        -0.5012 
     39 N          23.3509  -28.5841  -41.5139 N.am      6 UNK        -0.4439 
     40 CA         21.9347  -28.4973  -41.1276 C.3       6 UNK         0.0297 
     41 CB         21.4018  -27.0916  -41.4347 C.3       6 UNK        -0.2006 
     42 C          21.6234  -28.8630  -39.6668 C.2       6 UNK         0.4892 
     43 O          20.5530  -29.4094  -39.4087 O.2       6 UNK        -0.5089 
     44 N          22.5736  -28.6202  -38.7526 N.am      7 UNK        -0.4243 
     45 CA         22.5034  -29.0136  -37.3402 C.3       7 UNK         0.0196 
     46 CB         23.7397  -28.4702  -36.6058 C.3       7 UNK        -0.2007 
     47 C          22.3693  -30.5337  -37.1132 C.2       7 UNK         0.5020 
     48 O          21.8356  -30.9392  -36.0804 O.2       7 UNK        -0.5147 
     49 N          22.8363  -31.3387  -38.0762 N.am      8 UNK        -0.4734 
     50 CA         22.6990  -32.7959  -38.1060 C.3       8 UNK         0.0238 
     51 CB         24.1097  -33.4127  -38.1150 C.3       8 UNK        -0.1912 
     52 C          21.8849  -33.2699  -39.3259 C.2       8 UNK         0.5038 
     53 O          21.8214  -34.4777  -39.5607 O.2       8 UNK        -0.5046 
     54 N          21.3020  -32.3334  -40.0919 N.am      9 UNK        -0.4200 
     55 CA         20.6527  -32.5565  -41.3955 C.3       9 UNK         0.0839 
     56 C          21.5993  -33.1586  -42.4814 C.2       9 UNK         0.5513 
     57 N          22.8938  -32.8699  -42.4422 N.am      9 UNK        -0.7519 
     58 O          21.1621  -33.8639  -43.3869 O.2       9 UNK        -0.4960 
     59 C59        19.2867  -33.2926  -41.2590 C.3       10 UNK        -0.0876 
     60 S60        17.9686  -32.1555  -40.7063 S.3       10 UNK        -0.2414 
     61 C61        16.8353  -32.1577  -42.1380 C.3       10 UNK         0.0169 
     62 H62        18.1681  -28.2790  -39.9173 H         1 UNK         0.0903 
     63 H63        16.8826  -29.0953  -40.8042 H         1 UNK         0.0903 
     64 H64        18.4835  -28.9297  -41.5266 H         1 UNK         0.0903 
     65 H65        18.5261  -27.3243  -43.1136 H         1 UNK         0.3096 
     66 H66        17.4191  -24.7048  -42.5700 H         1 UNK         0.1121 
     67 H67        16.0492  -24.4952  -44.5516 H         1 UNK         0.0849 
     68 H68        15.4283  -25.7537  -43.5476 H         1 UNK         0.0849 
     69 H69        14.9258  -27.9399  -44.1219 H         1 UNK         0.0865 
     70 H70        14.9264  -28.6000  -45.7342 H         1 UNK         0.0865 
     71 H71        15.4041  -30.0054  -42.9899 H         1 UNK         0.1346 
     72 H72        19.0512  -32.1157  -43.7589 H         1 UNK         0.1412 
     73 H73        18.0027  -28.7286  -46.1456 H         1 UNK         0.1426 
     74 H74        19.7273  -31.3809  -46.5958 H         1 UNK         0.0716 
     75 H75        20.7371  -31.1183  -45.1969 H         1 UNK         0.0716 
     76 H76        21.2365  -28.4488  -44.3958 H         1 UNK         0.0695 
     77 H77        22.5643  -29.2758  -45.1791 H         1 UNK         0.0695 
     78 H78        22.7199  -27.2237  -46.7959 H         1 UNK         0.0983 
     79 H79        21.2962  -25.7333  -44.6604 H         1 UNK         0.3095 
     80 H80        20.5188  -23.5457  -45.6176 H         1 UNK         0.0454 
     81 H81        20.1412  -23.1059  -48.0365 H         1 UNK         0.0851 
     82 H82        18.7021  -24.1160  -48.0176 H         1 UNK         0.0851 
     83 H83        18.7492  -22.6198  -47.0855 H         1 UNK         0.0851 
     84 H84        17.9126  -24.8648  -45.8208 H         1 UNK         0.2976 
     85 H85        24.8375  -27.7558  -46.2429 H         1 UNK         0.3116 
     86 H86        26.1670  -25.8874  -44.5686 H         1 UNK         0.0646 
     87 H87        28.2116  -27.1509  -45.2491 H         1 UNK         0.0847 
     88 H88        27.1792  -26.8285  -46.6303 H         1 UNK         0.0847 
     89 H89        27.2160  -28.4393  -45.9100 H         1 UNK         0.0847 
     90 H90        24.9860  -29.1022  -43.8938 H         1 UNK         0.3040 
     91 H91        26.1737  -29.0454  -41.1432 H         1 UNK         0.1015 
     92 H92        27.2255  -30.8287  -42.5598 H         1 UNK         0.0786 
     93 H93        25.6319  -31.4979  -42.9056 H         1 UNK         0.0786 
     94 H94        26.2641  -31.5174  -41.2639 H         1 UNK         0.0786 
     95 H95        23.7301  -27.7793  -41.9969 H         1 UNK         0.3172 
     96 H96        21.3906  -29.2074  -41.7536 H         1 UNK         0.0595 
     97 H97        21.3796  -26.9067  -42.5064 H         1 UNK         0.0839 
     98 H98        22.0118  -26.3145  -40.9729 H         1 UNK         0.0839 
     99 H99        20.3826  -26.9607  -41.0704 H         1 UNK         0.0839 
    100 H100       23.4247  -28.1721  -39.0591 H         1 UNK         0.2998 
    101 H101       21.6146  -28.5444  -36.9132 H         1 UNK         0.0822 
    102 H102       23.7999  -27.3840  -36.6773 H         1 UNK         0.0787 
    103 H103       23.7049  -28.7212  -35.5446 H         1 UNK         0.0787 
    104 H104       24.6637  -28.8871  -37.0088 H         1 UNK         0.0787 
    105 H105       23.2578  -30.9235  -38.9029 H         1 UNK         0.3055 
    106 H106       22.1695  -33.1525  -37.2199 H         1 UNK         0.1106 
    107 H107       24.6665  -33.1261  -39.0084 H         1 UNK         0.0828 
    108 H108       24.6854  -33.0967  -37.2451 H         1 UNK         0.0828 
    109 H109       24.0651  -34.5024  -38.0924 H         1 UNK         0.0828 
    110 H110       21.3505  -31.3686  -39.7918 H         1 UNK         0.2931 
    111 H111       20.4460  -31.5567  -41.7789 H         1 UNK         0.0412 
    112 H112       23.5070  -33.2555  -43.1416 H         1 UNK         0.3472 
    113 H113       23.2554  -32.2370  -41.7353 H         1 UNK         0.3472 
    114 H114       19.3572  -34.1187  -40.5507 H         1 UNK         0.0970 
    115 H115       18.9743  -33.7563  -42.1944 H         1 UNK         0.0970 
    116 H116       16.7781  -33.1568  -42.5715 H         1 UNK         0.0612 
    117 H117       15.8339  -31.9443  -41.7610 H         1 UNK         0.0612 
@<TRIPOS>BOND
     1    1    2 1    
     2    1   62 1    
     3    1   63 1    
     4    1   64 1    
     5    2    3 2    
     6    2    4 am   BACKBONE|DICT|INTERRES
     7    4    5 1    
     8    4   65 1    
     9    5    6 1    
    10    5   25 1    
    11    5   66 1    
    12    6    7 1    
    13    6   67 1    
    14    6   68 1    
    15    7    8 1    
    16    8    9 1    
    17    8   69 1    
    18    8   70 1    
    19    9   10 ar   
    20    9   14 ar   
    21   10   11 ar   
    22   10   71 1    
    23   11   12 ar   
    24   11   61 1    
    25   12   13 ar   
    26   12   72 1    
    27   13   14 ar   
    28   13   15 1    
    29   14   73 1    
    30   15   16 1    
    31   15   74 1    
    32   15   75 1    
    33   16   17 1    
    34   17   18 1    
    35   17   76 1    
    36   17   77 1    
    37   18   19 1    
    38   18   27 1    
    39   18   78 1    
    40   19   20 am   BACKBONE|DICT|INTERRES
    41   19   79 1    
    42   20   21 2    
    43   20   22 1    
    44   22   23 1    
    45   22   24 1    
    46   22   80 1    
    47   23   81 1    
    48   23   82 1    
    49   23   83 1    
    50   24   25 am   BACKBONE|DICT|INTERRES
    51   24   84 1    
    52   25   26 2    
    53   27   28 2    
    54   27   29 am   BACKBONE|DICT|INTERRES
    55   29   30 1    
    56   29   85 1    
    57   30   31 1    
    58   30   32 1    
    59   30   86 1    
    60   31   87 1    
    61   31   88 1    
    62   31   89 1    
    63   32   33 2    
    64   32   34 am   BACKBONE|DICT|INTERRES
    65   34   35 1    
    66   34   90 1    
    67   35   36 1    
    68   35   37 1    
    69   35   91 1    
    70   36   92 1    
    71   36   93 1    
    72   36   94 1    
    73   37   38 2    
    74   37   39 am   BACKBONE|DICT|INTERRES
    75   39   40 1    
    76   39   95 1    
    77   40   41 1    
    78   40   42 1    
    79   40   96 1    
    80   41   97 1    
    81   41   98 1    
    82   41   99 1    
    83   42   43 2    
    84   42   44 am   BACKBONE|DICT|INTERRES
    85   44   45 1    
    86   44  100 1    
    87   45   46 1    
    88   45   47 1    
    89   45  101 1    
    90   46  102 1    
    91   46  103 1    
    92   46  104 1    
    93   47   48 2    
    94   47   49 am   BACKBONE|DICT|INTERRES
    95   49   50 1    
    96   49  105 1    
    97   50   51 1    
    98   50   52 1    
    99   50  106 1    
   100   51  107 1    
   101   51  108 1    
   102   51  109 1    
   103   52   53 2    
   104   52   54 am   BACKBONE|DICT|INTERRES
   105   54   55 1    
   106   54  110 1    
   107   55   56 1    
   108   55   59 1    
   109   55  111 1    
   110   56   57 am   BACKBONE|DICT|INTERRES
   111   56   58 2    
   112   57  112 1    
   113   57  113 1    
   114   59   60 1    
   115   59  114 1    
   116   59  115 1    
   117   60   61 1    
   118   61  116 1    
   119   61  117 1    
@<TRIPOS>SUBSTRUCTURE
     1 UNK         1 GROUP             0       ****    0 ROOT    
