@<TRIPOS>MOLECULE
3R8
117   119    1
SMALL
USER_CHARGES


@<TRIPOS>ATOM
      1 CA         20.2999  -30.4859  -44.4298 C.3       0 UNK        -0.2013 
      2 C          20.5652  -30.2939  -45.9205 C.2       0 UNK         0.4866 
      3 O          21.4355  -30.9634  -46.4710 O.2       0 UNK        -0.5176 
      4 N          19.8584  -29.3934  -46.6185 N.am      1 UNK        -0.4884 
      5 CA         18.8169  -28.4912  -46.1026 C.3       1 UNK         0.0853 
      6 C6         17.6857  -28.2488  -47.1314 C.3       10 UNK        -0.0849 
      7 S7         16.7368  -29.7703  -47.4577 S.3       10 UNK        -0.2776 
      8 C8         15.3483  -29.5862  -46.2877 C.3       10 UNK         0.0316 
      9 C9         15.7876  -29.7250  -44.8342 C.ar      10 UNK        -0.0863 
     10 C10        16.2270  -30.9625  -44.3545 C.ar      10 UNK        -0.1009 
     11 C11        16.6058  -31.1168  -43.0175 C.ar      10 UNK        -0.0712 
     12 C12        16.5351  -30.0191  -42.1544 C.ar      10 UNK        -0.0894 
     13 C13        16.1041  -28.7731  -42.6201 C.ar      10 UNK        -0.0745 
     14 C14        15.7340  -28.6309  -43.9624 C.ar      10 UNK        -0.0972 
     15 C15        15.9937  -27.5951  -41.6596 C.3       10 UNK         0.0209 
     16 S16        17.3637  -26.4089  -41.8352 S.3       10 UNK        -0.2568 
     17 C17        18.7733  -27.3607  -41.1672 C.3       10 UNK        -0.0983 
     18 CA         20.1478  -26.6741  -41.3812 C.3       3 UNK         0.0876 
     19 N          20.3514  -26.3290  -42.7925 N.am      3 UNK        -0.4424 
     20 C          21.5099  -26.0645  -43.4068 C.2       2 UNK         0.4918 
     21 O          22.5814  -25.9646  -42.8123 O.2       2 UNK        -0.4875 
     22 CA         21.4495  -25.8965  -44.9415 C.3       2 UNK         0.0481 
     23 CB         22.8463  -25.7740  -45.5775 C.3       2 UNK        -0.1831 
     24 N          20.7252  -27.0018  -45.5816 N.am      2 UNK        -0.4498 
     25 C          19.3929  -27.1601  -45.5806 C.2       1 UNK         0.5027 
     26 O          18.6248  -26.3132  -45.1242 O.2       1 UNK        -0.4969 
     27 C          20.3985  -25.5106  -40.3942 C.2       3 UNK         0.5005 
     28 O          20.4054  -25.7385  -39.1830 O.2       3 UNK        -0.5279 
     29 N          20.6389  -24.2971  -40.9134 N.am      4 UNK        -0.4463 
     30 CA         21.1921  -23.1651  -40.1643 C.3       4 UNK         0.0283 
     31 CB         21.0151  -21.8792  -40.9875 C.3       4 UNK        -0.1875 
     32 C          22.6767  -23.3693  -39.7957 C.2       4 UNK         0.4949 
     33 O          23.1443  -22.7648  -38.8303 O.2       4 UNK        -0.5039 
     34 N          23.3811  -24.2148  -40.5588 N.am      5 UNK        -0.4663 
     35 CA         24.7370  -24.6886  -40.2948 C.3       5 UNK         0.0242 
     36 CB         25.5720  -24.4936  -41.5740 C.3       5 UNK        -0.1982 
     37 C          24.6832  -26.1728  -39.8921 C.2       5 UNK         0.5017 
     38 O          23.6090  -26.7806  -39.8843 O.2       5 UNK        -0.5012 
     39 N          25.8499  -26.7535  -39.5856 N.am      6 UNK        -0.4439 
     40 CA         26.0232  -28.1614  -39.2070 C.3       6 UNK         0.0297 
     41 CB         27.3426  -28.3061  -38.4245 C.3       6 UNK        -0.2006 
     42 C          25.9362  -29.1301  -40.4091 C.2       6 UNK         0.4892 
     43 O          26.8263  -29.9627  -40.5942 O.2       6 UNK        -0.5089 
     44 N          24.8718  -29.0041  -41.2108 N.am      7 UNK        -0.4243 
     45 CA         24.5459  -29.8985  -42.3207 C.3       7 UNK         0.0196 
     46 CB         23.5688  -29.1893  -43.2705 C.3       7 UNK        -0.2007 
     47 C          23.9360  -31.2047  -41.7914 C.2       7 UNK         0.5020 
     48 O          23.1242  -31.1675  -40.8638 O.2       7 UNK        -0.5147 
     49 N          24.3254  -32.3331  -42.3930 N.am      8 UNK        -0.4734 
     50 CA         23.8334  -33.6607  -42.0296 C.3       8 UNK         0.0238 
     51 CB         24.9045  -34.7105  -42.3731 C.3       8 UNK        -0.1912 
     52 C          22.5173  -33.9630  -42.7606 C.2       8 UNK         0.5038 
     53 O          22.5004  -33.9665  -43.9932 O.2       8 UNK        -0.5046 
     54 N          21.4590  -34.2394  -41.9913 N.am      9 UNK        -0.4200 
     55 CA         20.1581  -34.7152  -42.4923 C.3       9 UNK         0.0839 
     56 C          20.1051  -36.2520  -42.7397 C.2       9 UNK         0.5513 
     57 N          21.1200  -37.0273  -42.3752 N.am      9 UNK        -0.7519 
     58 O          19.1242  -36.7504  -43.2854 O.2       9 UNK        -0.4960 
     59 C59        18.9988  -34.2494  -41.5722 C.3       10 UNK        -0.0876 
     60 S60        18.6929  -32.4576  -41.7334 S.3       10 UNK        -0.2414 
     61 C61        17.0417  -32.4825  -42.5034 C.3       10 UNK         0.0169 
     62 H62        20.3759  -29.5469  -43.8830 H         1 UNK         0.0903 
     63 H63        19.3063  -30.9038  -44.2740 H         1 UNK         0.0903 
     64 H64        21.0198  -31.1814  -43.9974 H         1 UNK         0.0903 
     65 H65        20.0435  -29.3071  -47.6084 H         1 UNK         0.3096 
     66 H66        18.3548  -28.9480  -45.2277 H         1 UNK         0.1121 
     67 H67        16.9900  -27.4803  -46.7880 H         1 UNK         0.0849 
     68 H68        18.0954  -27.8817  -48.0740 H         1 UNK         0.0849 
     69 H69        14.8514  -28.6297  -46.4579 H         1 UNK         0.0865 
     70 H70        14.6041  -30.3537  -46.5055 H         1 UNK         0.0865 
     71 H71        16.2649  -31.8086  -45.0274 H         1 UNK         0.1346 
     72 H72        16.8118  -30.1397  -41.1158 H         1 UNK         0.1412 
     73 H73        15.3944  -27.6687  -44.3216 H         1 UNK         0.1426 
     74 H74        15.9490  -27.9412  -40.6258 H         1 UNK         0.0716 
     75 H75        15.0545  -27.0711  -41.8427 H         1 UNK         0.0716 
     76 H76        18.5955  -27.5716  -40.1109 H         1 UNK         0.0695 
     77 H77        18.7901  -28.3323  -41.6626 H         1 UNK         0.0695 
     78 H78        20.9139  -27.4128  -41.1329 H         1 UNK         0.0983 
     79 H79        19.5108  -26.3285  -43.3632 H         1 UNK         0.3095 
     80 H80        20.9149  -24.9654  -45.1400 H         1 UNK         0.0454 
     81 H81        22.7790  -25.5988  -46.6512 H         1 UNK         0.0851 
     82 H82        23.4437  -26.6723  -45.4212 H         1 UNK         0.0851 
     83 H83        23.3997  -24.9366  -45.1502 H         1 UNK         0.0851 
     84 H84        21.2865  -27.7467  -45.9697 H         1 UNK         0.2976 
     85 H85        20.5818  -24.1976  -41.9161 H         1 UNK         0.3116 
     86 H86        20.6295  -23.0584  -39.2343 H         1 UNK         0.0646 
     87 H87        21.3912  -21.0131  -40.4411 H         1 UNK         0.0847 
     88 H88        19.9646  -21.6893  -41.2081 H         1 UNK         0.0847 
     89 H89        21.5559  -21.9260  -41.9336 H         1 UNK         0.0847 
     90 H90        22.8974  -24.7320  -41.2871 H         1 UNK         0.3040 
     91 H91        25.1906  -24.1268  -39.4753 H         1 UNK         0.1015 
     92 H92        25.5564  -23.4532  -41.8996 H         1 UNK         0.0786 
     93 H93        25.1975  -25.1045  -42.3969 H         1 UNK         0.0786 
     94 H94        26.6167  -24.7626  -41.4159 H         1 UNK         0.0786 
     95 H95        26.6939  -26.2022  -39.6490 H         1 UNK         0.3172 
     96 H96        25.2123  -28.4353  -38.5286 H         1 UNK         0.0595 
     97 H97        27.3589  -27.6580  -37.5480 H         1 UNK         0.0839 
     98 H98        28.2077  -28.0604  -39.0417 H         1 UNK         0.0839 
     99 H99        27.4765  -29.3284  -38.0680 H         1 UNK         0.0839 
    100 H100       24.1741  -28.3120  -40.9536 H         1 UNK         0.2998 
    101 H101       25.4631  -30.1233  -42.8696 H         1 UNK         0.0822 
    102 H102       23.9967  -28.2626  -43.6519 H         1 UNK         0.0787 
    103 H103       23.3322  -29.8175  -44.1302 H         1 UNK         0.0787 
    104 H104       22.6304  -28.9443  -42.7714 H         1 UNK         0.0787 
    105 H105       24.9533  -32.2834  -43.1830 H         1 UNK         0.3055 
    106 H106       23.6649  -33.6988  -40.9505 H         1 UNK         0.1106 
    107 H107       24.5708  -35.7126  -42.1007 H         1 UNK         0.0828 
    108 H108       25.1348  -34.7236  -43.4393 H         1 UNK         0.0828 
    109 H109       25.8323  -34.5216  -41.8326 H         1 UNK         0.0828 
    110 H110       21.5544  -34.1941  -40.9875 H         1 UNK         0.2931 
    111 H111       19.9897  -34.2687  -43.4748 H         1 UNK         0.0412 
    112 H112       21.9323  -36.6364  -41.9269 H         1 UNK         0.3472 
    113 H113       21.0685  -38.0193  -42.5488 H         1 UNK         0.3472 
    114 H114       18.0748  -34.7846  -41.8000 H         1 UNK         0.0970 
    115 H115       19.2179  -34.4791  -40.5281 H         1 UNK         0.0970 
    116 H116       16.3123  -32.8386  -41.7746 H         1 UNK         0.0612 
    117 H117       17.0474  -33.2071  -43.3195 H         1 UNK         0.0612 
@<TRIPOS>BOND
     1    1    2 1    
     2    1   62 1    
     3    1   63 1    
     4    1   64 1    
     5    2    3 2    
     6    2    4 am   BACKBONE|DICT|INTERRES
     7    4    5 1    
     8    4   65 1    
     9    5    6 1    
    10    5   25 1    
    11    5   66 1    
    12    6    7 1    
    13    6   67 1    
    14    6   68 1    
    15    7    8 1    
    16    8    9 1    
    17    8   69 1    
    18    8   70 1    
    19    9   10 ar   
    20    9   14 ar   
    21   10   11 ar   
    22   10   71 1    
    23   11   12 ar   
    24   11   61 1    
    25   12   13 ar   
    26   12   72 1    
    27   13   14 ar   
    28   13   15 1    
    29   14   73 1    
    30   15   16 1    
    31   15   74 1    
    32   15   75 1    
    33   16   17 1    
    34   17   18 1    
    35   17   76 1    
    36   17   77 1    
    37   18   19 1    
    38   18   27 1    
    39   18   78 1    
    40   19   20 am   BACKBONE|DICT|INTERRES
    41   19   79 1    
    42   20   21 2    
    43   20   22 1    
    44   22   23 1    
    45   22   24 1    
    46   22   80 1    
    47   23   81 1    
    48   23   82 1    
    49   23   83 1    
    50   24   25 am   BACKBONE|DICT|INTERRES
    51   24   84 1    
    52   25   26 2    
    53   27   28 2    
    54   27   29 am   BACKBONE|DICT|INTERRES
    55   29   30 1    
    56   29   85 1    
    57   30   31 1    
    58   30   32 1    
    59   30   86 1    
    60   31   87 1    
    61   31   88 1    
    62   31   89 1    
    63   32   33 2    
    64   32   34 am   BACKBONE|DICT|INTERRES
    65   34   35 1    
    66   34   90 1    
    67   35   36 1    
    68   35   37 1    
    69   35   91 1    
    70   36   92 1    
    71   36   93 1    
    72   36   94 1    
    73   37   38 2    
    74   37   39 am   BACKBONE|DICT|INTERRES
    75   39   40 1    
    76   39   95 1    
    77   40   41 1    
    78   40   42 1    
    79   40   96 1    
    80   41   97 1    
    81   41   98 1    
    82   41   99 1    
    83   42   43 2    
    84   42   44 am   BACKBONE|DICT|INTERRES
    85   44   45 1    
    86   44  100 1    
    87   45   46 1    
    88   45   47 1    
    89   45  101 1    
    90   46  102 1    
    91   46  103 1    
    92   46  104 1    
    93   47   48 2    
    94   47   49 am   BACKBONE|DICT|INTERRES
    95   49   50 1    
    96   49  105 1    
    97   50   51 1    
    98   50   52 1    
    99   50  106 1    
   100   51  107 1    
   101   51  108 1    
   102   51  109 1    
   103   52   53 2    
   104   52   54 am   BACKBONE|DICT|INTERRES
   105   54   55 1    
   106   54  110 1    
   107   55   56 1    
   108   55   59 1    
   109   55  111 1    
   110   56   57 am   BACKBONE|DICT|INTERRES
   111   56   58 2    
   112   57  112 1    
   113   57  113 1    
   114   59   60 1    
   115   59  114 1    
   116   59  115 1    
   117   60   61 1    
   118   61  116 1    
   119   61  117 1    
@<TRIPOS>SUBSTRUCTURE
     1 UNK         1 GROUP             0       ****    0 ROOT    
