@<TRIPOS>MOLECULE
3R8
117   119    1
SMALL
USER_CHARGES


@<TRIPOS>ATOM
      1 CA         16.3274  -22.9706  -42.8172 C.3       0 UNK        -0.2013 
      2 C          16.8603  -24.3543  -43.1581 C.2       0 UNK         0.4866 
      3 O          17.0307  -25.1781  -42.2585 O.2       0 UNK        -0.5176 
      4 N          17.1186  -24.6105  -44.4502 N.am      1 UNK        -0.4884 
      5 CA         17.7054  -25.8442  -44.9996 C.3       1 UNK         0.0853 
      6 C6         16.8570  -27.1095  -44.6542 C.3       10 UNK        -0.0849 
      7 S7         16.6394  -28.3074  -46.0237 S.3       10 UNK        -0.2776 
      8 C8         17.8444  -29.6593  -45.7615 C.3       10 UNK         0.0316 
      9 C9         17.5630  -30.5600  -44.5647 C.ar      10 UNK        -0.0863 
     10 C10        17.1114  -31.8681  -44.7685 C.ar      10 UNK        -0.1009 
     11 C11        16.9993  -32.7541  -43.6923 C.ar      10 UNK        -0.0712 
     12 C12        17.2551  -32.3041  -42.3944 C.ar      10 UNK        -0.0894 
     13 C13        17.7076  -31.0022  -42.1770 C.ar      10 UNK        -0.0745 
     14 C14        17.8775  -30.1457  -43.2664 C.ar      10 UNK        -0.0972 
     15 C15        18.0599  -30.5369  -40.7737 C.3       10 UNK         0.0209 
     16 S16        19.8495  -30.2349  -40.6081 S.3       10 UNK        -0.2568 
     17 C17        19.9025  -28.4457  -40.2458 C.3       10 UNK        -0.0983 
     18 CA         21.0453  -27.7273  -41.0029 C.3       3 UNK         0.0876 
     19 N          20.8301  -27.7297  -42.4560 N.am      3 UNK        -0.4424 
     20 C          21.7304  -27.3682  -43.3801 C.2       2 UNK         0.4918 
     21 O          22.8683  -26.9892  -43.1095 O.2       2 UNK        -0.4875 
     22 CA         21.2747  -27.3663  -44.8492 C.3       2 UNK         0.0481 
     23 CB         21.6276  -28.7136  -45.5008 C.3       2 UNK        -0.1831 
     24 N          19.8490  -27.0646  -45.0532 N.am      2 UNK        -0.4498 
     25 C          19.2051  -25.9719  -44.6206 C.2       1 UNK         0.5027 
     26 O          19.7660  -25.0904  -43.9638 O.2       1 UNK        -0.4969 
     27 C          21.3057  -26.3223  -40.4071 C.2       3 UNK         0.5005 
     28 O          21.7313  -26.2351  -39.2545 O.2       3 UNK        -0.5279 
     29 N          21.0817  -25.2477  -41.1808 N.am      4 UNK        -0.4463 
     30 CA         21.4900  -23.8857  -40.8283 C.3       4 UNK         0.0283 
     31 CB         20.7779  -22.8869  -41.7543 C.3       4 UNK        -0.1875 
     32 C          23.0177  -23.6741  -40.8835 C.2       4 UNK         0.4949 
     33 O          23.5057  -22.7394  -40.2475 O.2       4 UNK        -0.5039 
     34 N          23.7393  -24.5190  -41.6359 N.am      5 UNK        -0.4663 
     35 CA         25.1943  -24.4537  -41.8086 C.3       5 UNK         0.0242 
     36 CB         25.5120  -24.0674  -43.2631 C.3       5 UNK        -0.1982 
     37 C          25.8877  -25.7752  -41.4405 C.2       5 UNK         0.5017 
     38 O          26.9488  -25.7394  -40.8160 O.2       5 UNK        -0.5012 
     39 N          25.2938  -26.9054  -41.8404 N.am      6 UNK        -0.4439 
     40 CA         25.7763  -28.2658  -41.6100 C.3       6 UNK         0.0297 
     41 CB         25.9073  -28.9748  -42.9750 C.3       6 UNK        -0.2006 
     42 C          24.8303  -28.9840  -40.6291 C.2       6 UNK         0.4892 
     43 O          24.3618  -28.3610  -39.6752 O.2       6 UNK        -0.5089 
     44 N          24.5695  -30.2746  -40.8630 N.am      7 UNK        -0.4243 
     45 CA         23.6962  -31.1448  -40.0792 C.3       7 UNK         0.0196 
     46 CB         24.3746  -31.5159  -38.7436 C.3       7 UNK        -0.2007 
     47 C          23.3899  -32.3998  -40.9098 C.2       7 UNK         0.5020 
     48 O          23.9684  -32.5732  -41.9865 O.2       7 UNK        -0.5147 
     49 N          22.5055  -33.2606  -40.3834 N.am      8 UNK        -0.4734 
     50 CA         22.1738  -34.6072  -40.8818 C.3       8 UNK         0.0238 
     51 CB         23.3533  -35.5694  -40.6226 C.3       8 UNK        -0.1912 
     52 C          21.6989  -34.6360  -42.3492 C.2       8 UNK         0.5038 
     53 O          22.1038  -35.5134  -43.1146 O.2       8 UNK        -0.5046 
     54 N          20.8618  -33.6557  -42.7068 N.am      9 UNK        -0.4200 
     55 CA         20.3363  -33.4050  -44.0586 C.3       9 UNK         0.0839 
     56 C          21.3864  -32.8728  -45.0802 C.2       9 UNK         0.5513 
     57 N          22.5972  -32.5065  -44.6744 N.am      9 UNK        -0.7519 
     58 O          21.0867  -32.7528  -46.2652 O.2       9 UNK        -0.4960 
     59 C59        19.4734  -34.5705  -44.6447 C.3       10 UNK        -0.0876 
     60 S60        18.1913  -35.2336  -43.5156 S.3       10 UNK        -0.2414 
     61 C61        16.7257  -34.2282  -43.9363 C.3       10 UNK         0.0169 
     62 H62        17.0087  -22.4660  -42.1326 H         1 UNK         0.0903 
     63 H63        16.2131  -22.3463  -43.7032 H         1 UNK         0.0903 
     64 H64        15.3551  -23.0522  -42.3320 H         1 UNK         0.0903 
     65 H65        16.9771  -23.8725  -45.1264 H         1 UNK         0.3096 
     66 H66        17.6860  -25.7034  -46.0817 H         1 UNK         0.1121 
     67 H67        15.8370  -26.7960  -44.4253 H         1 UNK         0.0849 
     68 H68        17.1853  -27.5748  -43.7318 H         1 UNK         0.0849 
     69 H69        17.8434  -30.2623  -46.6711 H         1 UNK         0.0865 
     70 H70        18.8575  -29.2830  -45.6942 H         1 UNK         0.0865 
     71 H71        16.9237  -32.2216  -45.7733 H         1 UNK         0.1346 
     72 H72        17.1698  -32.9926  -41.5646 H         1 UNK         0.1412 
     73 H73        18.3025  -29.1734  -43.0887 H         1 UNK         0.1426 
     74 H74        17.7711  -31.2877  -40.0366 H         1 UNK         0.0716 
     75 H75        17.4792  -29.6460  -40.5336 H         1 UNK         0.0716 
     76 H76        20.0298  -28.3506  -39.1655 H         1 UNK         0.0695 
     77 H77        18.9481  -27.9724  -40.4813 H         1 UNK         0.0695 
     78 H78        21.9613  -28.2909  -40.8228 H         1 UNK         0.0983 
     79 H79        19.9144  -28.0094  -42.7661 H         1 UNK         0.3095 
     80 H80        21.8402  -26.5852  -45.3612 H         1 UNK         0.0454 
     81 H81        21.3667  -28.7300  -46.5590 H         1 UNK         0.0851 
     82 H82        21.1239  -29.5489  -45.0127 H         1 UNK         0.0851 
     83 H83        22.6995  -28.9064  -45.4339 H         1 UNK         0.0851 
     84 H84        19.3322  -27.7109  -45.6300 H         1 UNK         0.2976 
     85 H85        20.6888  -25.3749  -42.1083 H         1 UNK         0.3116 
     86 H86        21.1661  -23.6869  -39.8045 H         1 UNK         0.0646 
     87 H87        21.0879  -23.0084  -42.7930 H         1 UNK         0.0847 
     88 H88        21.0026  -21.8591  -41.4663 H         1 UNK         0.0847 
     89 H89        19.6951  -23.0068  -41.7122 H         1 UNK         0.0847 
     90 H90        23.2573  -25.2719  -42.1138 H         1 UNK         0.3040 
     91 H91        25.6189  -23.6867  -41.1568 H         1 UNK         0.1015 
     92 H92        25.1034  -24.7890  -43.9718 H         1 UNK         0.0786 
     93 H93        26.5891  -24.0185  -43.4290 H         1 UNK         0.0786 
     94 H94        25.1017  -23.0879  -43.5094 H         1 UNK         0.0786 
     95 H95        24.4003  -26.8491  -42.3270 H         1 UNK         0.3172 
     96 H96        26.7622  -28.2456  -41.1418 H         1 UNK         0.0595 
     97 H97        24.9379  -29.1102  -43.4575 H         1 UNK         0.0839 
     98 H98        26.3741  -29.9554  -42.8756 H         1 UNK         0.0839 
     99 H99        26.5342  -28.3982  -43.6556 H         1 UNK         0.0839 
    100 H100       24.9474  -30.7256  -41.6882 H         1 UNK         0.2998 
    101 H101       22.7581  -30.6220  -39.8849 H         1 UNK         0.0822 
    102 H102       23.7371  -32.1598  -38.1369 H         1 UNK         0.0787 
    103 H103       25.3140  -32.0458  -38.9061 H         1 UNK         0.0787 
    104 H104       24.5907  -30.6319  -38.1437 H         1 UNK         0.0787 
    105 H105       22.0594  -33.0021  -39.5134 H         1 UNK         0.3055 
    106 H106       21.3272  -34.9597  -40.2900 H         1 UNK         0.1106 
    107 H107       23.0868  -36.5959  -40.8777 H         1 UNK         0.0828 
    108 H108       24.2284  -35.3030  -41.2165 H         1 UNK         0.0828 
    109 H109       23.6466  -35.5651  -39.5729 H         1 UNK         0.0828 
    110 H110       20.6073  -32.9701  -42.0107 H         1 UNK         0.2931 
    111 H111       19.6790  -32.5509  -43.9207 H         1 UNK         0.0412 
    112 H112       22.8864  -32.6134  -43.7086 H         1 UNK         0.3472 
    113 H113       23.2541  -32.1599  -45.3544 H         1 UNK         0.3472 
    114 H114       20.1197  -35.4013  -44.9317 H         1 UNK         0.0970 
    115 H115       18.9840  -34.2503  -45.5661 H         1 UNK         0.0970 
    116 H116       15.8823  -34.5484  -43.3231 H         1 UNK         0.0612 
    117 H117       16.4464  -34.4124  -44.9749 H         1 UNK         0.0612 
@<TRIPOS>BOND
     1    1    2 1    
     2    1   62 1    
     3    1   63 1    
     4    1   64 1    
     5    2    3 2    
     6    2    4 am   BACKBONE|DICT|INTERRES
     7    4    5 1    
     8    4   65 1    
     9    5    6 1    
    10    5   25 1    
    11    5   66 1    
    12    6    7 1    
    13    6   67 1    
    14    6   68 1    
    15    7    8 1    
    16    8    9 1    
    17    8   69 1    
    18    8   70 1    
    19    9   10 ar   
    20    9   14 ar   
    21   10   11 ar   
    22   10   71 1    
    23   11   12 ar   
    24   11   61 1    
    25   12   13 ar   
    26   12   72 1    
    27   13   14 ar   
    28   13   15 1    
    29   14   73 1    
    30   15   16 1    
    31   15   74 1    
    32   15   75 1    
    33   16   17 1    
    34   17   18 1    
    35   17   76 1    
    36   17   77 1    
    37   18   19 1    
    38   18   27 1    
    39   18   78 1    
    40   19   20 am   BACKBONE|DICT|INTERRES
    41   19   79 1    
    42   20   21 2    
    43   20   22 1    
    44   22   23 1    
    45   22   24 1    
    46   22   80 1    
    47   23   81 1    
    48   23   82 1    
    49   23   83 1    
    50   24   25 am   BACKBONE|DICT|INTERRES
    51   24   84 1    
    52   25   26 2    
    53   27   28 2    
    54   27   29 am   BACKBONE|DICT|INTERRES
    55   29   30 1    
    56   29   85 1    
    57   30   31 1    
    58   30   32 1    
    59   30   86 1    
    60   31   87 1    
    61   31   88 1    
    62   31   89 1    
    63   32   33 2    
    64   32   34 am   BACKBONE|DICT|INTERRES
    65   34   35 1    
    66   34   90 1    
    67   35   36 1    
    68   35   37 1    
    69   35   91 1    
    70   36   92 1    
    71   36   93 1    
    72   36   94 1    
    73   37   38 2    
    74   37   39 am   BACKBONE|DICT|INTERRES
    75   39   40 1    
    76   39   95 1    
    77   40   41 1    
    78   40   42 1    
    79   40   96 1    
    80   41   97 1    
    81   41   98 1    
    82   41   99 1    
    83   42   43 2    
    84   42   44 am   BACKBONE|DICT|INTERRES
    85   44   45 1    
    86   44  100 1    
    87   45   46 1    
    88   45   47 1    
    89   45  101 1    
    90   46  102 1    
    91   46  103 1    
    92   46  104 1    
    93   47   48 2    
    94   47   49 am   BACKBONE|DICT|INTERRES
    95   49   50 1    
    96   49  105 1    
    97   50   51 1    
    98   50   52 1    
    99   50  106 1    
   100   51  107 1    
   101   51  108 1    
   102   51  109 1    
   103   52   53 2    
   104   52   54 am   BACKBONE|DICT|INTERRES
   105   54   55 1    
   106   54  110 1    
   107   55   56 1    
   108   55   59 1    
   109   55  111 1    
   110   56   57 am   BACKBONE|DICT|INTERRES
   111   56   58 2    
   112   57  112 1    
   113   57  113 1    
   114   59   60 1    
   115   59  114 1    
   116   59  115 1    
   117   60   61 1    
   118   61  116 1    
   119   61  117 1    
@<TRIPOS>SUBSTRUCTURE
     1 UNK         1 GROUP             0       ****    0 ROOT    
