@<TRIPOS>MOLECULE
3R8
117   119    1
SMALL
USER_CHARGES


@<TRIPOS>ATOM
      1 CA         20.3483  -29.1007  -42.0718 C.3       0 UNK        -0.2013 
      2 C          19.7281  -27.7167  -42.0372 C.2       0 UNK         0.4866 
      3 O          20.3515  -26.7881  -41.5229 O.2       0 UNK        -0.5176 
      4 N          18.5164  -27.5805  -42.5876 N.am      1 UNK        -0.4884 
      5 CA         17.6540  -26.3912  -42.5621 C.3       1 UNK         0.0853 
      6 C6         16.1961  -26.7388  -42.9792 C.3       10 UNK        -0.0849 
      7 S7         15.5419  -28.2613  -42.2083 S.3       10 UNK        -0.2776 
      8 C8         15.2769  -29.3235  -43.6689 C.3       10 UNK         0.0316 
      9 C9         16.5737  -29.8772  -44.2525 C.ar      10 UNK        -0.0863 
     10 C10        17.1103  -31.0665  -43.7507 C.ar      10 UNK        -0.1009 
     11 C11        18.2493  -31.6335  -44.3299 C.ar      10 UNK        -0.0712 
     12 C12        18.8646  -30.9933  -45.4100 C.ar      10 UNK        -0.0894 
     13 C13        18.3558  -29.7894  -45.9096 C.ar      10 UNK        -0.0745 
     14 C14        17.2049  -29.2420  -45.3292 C.ar      10 UNK        -0.0972 
     15 C15        19.0172  -29.0941  -47.1005 C.3       10 UNK         0.0209 
     16 S16        20.8259  -28.8874  -46.9257 S.3       10 UNK        -0.2568 
     17 C17        20.9325  -27.9039  -45.3989 C.3       10 UNK        -0.0983 
     18 CA         21.7372  -26.5855  -45.5424 C.3       3 UNK         0.0876 
     19 N          21.2338  -25.6128  -44.5787 N.am      3 UNK        -0.4424 
     20 C          20.8601  -24.3550  -44.8279 C.2       2 UNK         0.4918 
     21 O          21.0010  -23.7902  -45.9138 O.2       2 UNK        -0.4875 
     22 CA         20.1586  -23.6451  -43.6490 C.3       2 UNK         0.0481 
     23 CB         19.4135  -22.3605  -44.0684 C.3       2 UNK        -0.1831 
     24 N          19.2725  -24.5696  -42.9206 N.am      2 UNK        -0.4498 
     25 C          18.2298  -25.2470  -43.4289 C.2       1 UNK         0.5027 
     26 O          17.7695  -25.0422  -44.5540 O.2       1 UNK        -0.4969 
     27 C          23.2341  -26.8215  -45.2780 C.2       3 UNK         0.5005 
     28 O          23.7333  -26.4710  -44.2045 O.2       3 UNK        -0.5279 
     29 N          23.9125  -27.4857  -46.2242 N.am      4 UNK        -0.4463 
     30 CA         25.3233  -27.8896  -46.1300 C.3       4 UNK         0.0283 
     31 CB         25.7506  -28.5471  -47.4520 C.3       4 UNK        -0.1875 
     32 C          25.6385  -28.8207  -44.9412 C.2       4 UNK         0.4949 
     33 O          26.7816  -28.8532  -44.4863 O.2       4 UNK        -0.5039 
     34 N          24.6182  -29.5346  -44.4444 N.am      5 UNK        -0.4663 
     35 CA         24.6705  -30.3504  -43.2297 C.3       5 UNK         0.0242 
     36 CB         23.4630  -31.3011  -43.2189 C.3       5 UNK        -0.1982 
     37 C          24.7460  -29.5324  -41.9229 C.2       5 UNK         0.5017 
     38 O          25.1077  -30.1098  -40.8994 O.2       5 UNK        -0.5012 
     39 N          24.4237  -28.2275  -41.9739 N.am      6 UNK        -0.4439 
     40 CA         24.5550  -27.2278  -40.9047 C.3       6 UNK         0.0297 
     41 CB         26.0444  -26.8884  -40.6871 C.3       6 UNK        -0.2006 
     42 C          23.8420  -27.6181  -39.5946 C.2       6 UNK         0.4892 
     43 O          24.5011  -27.8863  -38.5884 O.2       6 UNK        -0.5089 
     44 N          22.5021  -27.6478  -39.6435 N.am      7 UNK        -0.4243 
     45 CA         21.5758  -27.9559  -38.5423 C.3       7 UNK         0.0196 
     46 CB         21.7016  -26.9194  -37.4045 C.3       7 UNK        -0.2007 
     47 C          21.6266  -29.4087  -38.0219 C.2       7 UNK         0.5020 
     48 O          21.0347  -29.6899  -36.9781 O.2       7 UNK        -0.5147 
     49 N          22.2909  -30.3123  -38.7545 N.am      8 UNK        -0.4734 
     50 CA         22.2816  -31.7585  -38.5149 C.3       8 UNK         0.0238 
     51 CB         23.6728  -32.3289  -38.8592 C.3       8 UNK        -0.1912 
     52 C          21.1310  -32.4242  -39.3008 C.2       8 UNK         0.5038 
     53 O          20.0971  -31.7860  -39.5106 O.2       8 UNK        -0.5046 
     54 N          21.3379  -33.6839  -39.7172 N.am      9 UNK        -0.4200 
     55 CA         20.4384  -34.5334  -40.5227 C.3       9 UNK         0.0839 
     56 C          18.9752  -34.6515  -39.9909 C.2       9 UNK         0.5513 
     57 N          18.0055  -34.9918  -40.8301 N.am      9 UNK        -0.7519 
     58 O          18.7203  -34.5222  -38.7950 O.2       9 UNK        -0.4960 
     59 C59        20.6007  -34.3087  -42.0605 C.3       10 UNK        -0.0876 
     60 S60        20.1902  -32.6353  -42.6625 S.3       10 UNK        -0.2414 
     61 C61        18.8082  -32.9437  -43.7969 C.3       10 UNK         0.0169 
     62 H62        21.4305  -29.0304  -42.1619 H         1 UNK         0.0903 
     63 H63        20.1171  -29.6389  -41.1534 H         1 UNK         0.0903 
     64 H64        19.9717  -29.6824  -42.9121 H         1 UNK         0.0903 
     65 H65        18.0774  -28.3937  -43.0008 H         1 UNK         0.3096 
     66 H66        17.6227  -26.0346  -41.5301 H         1 UNK         0.1121 
     67 H67        15.5315  -25.9150  -42.7127 H         1 UNK         0.0849 
     68 H68        16.1077  -26.8417  -44.0610 H         1 UNK         0.0849 
     69 H69        14.6309  -30.1532  -43.3773 H         1 UNK         0.0865 
     70 H70        14.7198  -28.7732  -44.4289 H         1 UNK         0.0865 
     71 H71        16.6283  -31.5635  -42.9194 H         1 UNK         0.1346 
     72 H72        19.7455  -31.4316  -45.8590 H         1 UNK         0.1412 
     73 H73        16.7890  -28.3283  -45.7313 H         1 UNK         0.1426 
     74 H74        18.5737  -28.1111  -47.2676 H         1 UNK         0.0716 
     75 H75        18.8177  -29.6780  -47.9997 H         1 UNK         0.0716 
     76 H76        19.9114  -27.6715  -45.0939 H         1 UNK         0.0695 
     77 H77        21.3344  -28.5414  -44.6110 H         1 UNK         0.0695 
     78 H78        21.6209  -26.1891  -46.5537 H         1 UNK         0.0983 
     79 H79        21.1496  -25.9468  -43.6287 H         1 UNK         0.3095 
     80 H80        20.9455  -23.3584  -42.9500 H         1 UNK         0.0454 
     81 H81        20.1056  -21.6301  -44.4889 H         1 UNK         0.0851 
     82 H82        18.6538  -22.5569  -44.8253 H         1 UNK         0.0851 
     83 H83        18.9245  -21.8892  -43.2161 H         1 UNK         0.0851 
     84 H84        19.6225  -24.8908  -42.0239 H         1 UNK         0.2976 
     85 H85        23.4172  -27.7700  -47.0588 H         1 UNK         0.3116 
     86 H86        25.9143  -26.9817  -45.9925 H         1 UNK         0.0646 
     87 H87        26.8027  -28.8344  -47.4230 H         1 UNK         0.0847 
     88 H88        25.6277  -27.8659  -48.2942 H         1 UNK         0.0847 
     89 H89        25.1732  -29.4488  -47.6602 H         1 UNK         0.0847 
     90 H90        23.7252  -29.4671  -44.9097 H         1 UNK         0.3040 
     91 H91        25.5777  -30.9578  -43.2690 H         1 UNK         0.1015 
     92 H92        23.5003  -31.9962  -44.0578 H         1 UNK         0.0786 
     93 H93        22.5199  -30.7605  -43.2815 H         1 UNK         0.0786 
     94 H94        23.4359  -31.9013  -42.3088 H         1 UNK         0.0786 
     95 H95        24.1531  -27.8388  -42.8735 H         1 UNK         0.3172 
     96 H96        24.0657  -26.3230  -41.2695 H         1 UNK         0.0595 
     97 H97        26.5080  -26.5355  -41.6085 H         1 UNK         0.0839 
     98 H98        26.6104  -27.7529  -40.3380 H         1 UNK         0.0839 
     99 H99        26.1611  -26.1003  -39.9422 H         1 UNK         0.0839 
    100 H100       22.0442  -27.3798  -40.5087 H         1 UNK         0.2998 
    101 H101       20.5767  -27.8421  -38.9649 H         1 UNK         0.0822 
    102 H102       21.6298  -25.9010  -37.7864 H         1 UNK         0.0787 
    103 H103       20.9047  -27.0437  -36.6704 H         1 UNK         0.0787 
    104 H104       22.6482  -27.0137  -36.8718 H         1 UNK         0.0787 
    105 H105       22.7654  -29.9963  -39.5879 H         1 UNK         0.3055 
    106 H106       22.0948  -31.9500  -37.4559 H         1 UNK         0.1106 
    107 H107       23.8629  -32.3189  -39.9327 H         1 UNK         0.0828 
    108 H108       24.4643  -31.7503  -38.3818 H         1 UNK         0.0828 
    109 H109       23.7824  -33.3562  -38.5107 H         1 UNK         0.0828 
    110 H110       22.2102  -34.1197  -39.4587 H         1 UNK         0.2931 
    111 H111       20.8288  -35.5358  -40.3433 H         1 UNK         0.0412 
    112 H112       17.0685  -35.0984  -40.4740 H         1 UNK         0.3472 
    113 H113       18.1903  -35.1431  -41.8077 H         1 UNK         0.3472 
    114 H114       20.0413  -35.0554  -42.6250 H         1 UNK         0.0970 
    115 H115       21.6427  -34.4878  -42.3294 H         1 UNK         0.0970 
    116 H116       19.1490  -33.5688  -44.6236 H         1 UNK         0.0612 
    117 H117       18.0277  -33.5030  -43.2804 H         1 UNK         0.0612 
@<TRIPOS>BOND
     1    1    2 1    
     2    1   62 1    
     3    1   63 1    
     4    1   64 1    
     5    2    3 2    
     6    2    4 am   BACKBONE|DICT|INTERRES
     7    4    5 1    
     8    4   65 1    
     9    5    6 1    
    10    5   25 1    
    11    5   66 1    
    12    6    7 1    
    13    6   67 1    
    14    6   68 1    
    15    7    8 1    
    16    8    9 1    
    17    8   69 1    
    18    8   70 1    
    19    9   10 ar   
    20    9   14 ar   
    21   10   11 ar   
    22   10   71 1    
    23   11   12 ar   
    24   11   61 1    
    25   12   13 ar   
    26   12   72 1    
    27   13   14 ar   
    28   13   15 1    
    29   14   73 1    
    30   15   16 1    
    31   15   74 1    
    32   15   75 1    
    33   16   17 1    
    34   17   18 1    
    35   17   76 1    
    36   17   77 1    
    37   18   19 1    
    38   18   27 1    
    39   18   78 1    
    40   19   20 am   BACKBONE|DICT|INTERRES
    41   19   79 1    
    42   20   21 2    
    43   20   22 1    
    44   22   23 1    
    45   22   24 1    
    46   22   80 1    
    47   23   81 1    
    48   23   82 1    
    49   23   83 1    
    50   24   25 am   BACKBONE|DICT|INTERRES
    51   24   84 1    
    52   25   26 2    
    53   27   28 2    
    54   27   29 am   BACKBONE|DICT|INTERRES
    55   29   30 1    
    56   29   85 1    
    57   30   31 1    
    58   30   32 1    
    59   30   86 1    
    60   31   87 1    
    61   31   88 1    
    62   31   89 1    
    63   32   33 2    
    64   32   34 am   BACKBONE|DICT|INTERRES
    65   34   35 1    
    66   34   90 1    
    67   35   36 1    
    68   35   37 1    
    69   35   91 1    
    70   36   92 1    
    71   36   93 1    
    72   36   94 1    
    73   37   38 2    
    74   37   39 am   BACKBONE|DICT|INTERRES
    75   39   40 1    
    76   39   95 1    
    77   40   41 1    
    78   40   42 1    
    79   40   96 1    
    80   41   97 1    
    81   41   98 1    
    82   41   99 1    
    83   42   43 2    
    84   42   44 am   BACKBONE|DICT|INTERRES
    85   44   45 1    
    86   44  100 1    
    87   45   46 1    
    88   45   47 1    
    89   45  101 1    
    90   46  102 1    
    91   46  103 1    
    92   46  104 1    
    93   47   48 2    
    94   47   49 am   BACKBONE|DICT|INTERRES
    95   49   50 1    
    96   49  105 1    
    97   50   51 1    
    98   50   52 1    
    99   50  106 1    
   100   51  107 1    
   101   51  108 1    
   102   51  109 1    
   103   52   53 2    
   104   52   54 am   BACKBONE|DICT|INTERRES
   105   54   55 1    
   106   54  110 1    
   107   55   56 1    
   108   55   59 1    
   109   55  111 1    
   110   56   57 am   BACKBONE|DICT|INTERRES
   111   56   58 2    
   112   57  112 1    
   113   57  113 1    
   114   59   60 1    
   115   59  114 1    
   116   59  115 1    
   117   60   61 1    
   118   61  116 1    
   119   61  117 1    
@<TRIPOS>SUBSTRUCTURE
     1 UNK         1 GROUP             0       ****    0 ROOT    
