@<TRIPOS>MOLECULE
3R8
117   119    1
SMALL
USER_CHARGES


@<TRIPOS>ATOM
      1 CA         14.0828  -22.0518  -45.2440 C.3       0 UNK        -0.2013 
      2 C          15.0686  -23.1166  -45.7007 C.2       0 UNK         0.4866 
      3 O          15.6941  -22.9619  -46.7498 O.2       0 UNK        -0.5176 
      4 N          15.2140  -24.1971  -44.9208 N.am      1 UNK        -0.4884 
      5 CA         16.1250  -25.3164  -45.2048 C.3       1 UNK         0.0853 
      6 C6         15.7054  -26.5907  -44.4245 C.3       10 UNK        -0.0849 
      7 S7         16.0267  -28.1205  -45.3643 S.3       10 UNK        -0.2776 
      8 C8         15.7870  -29.3910  -44.0822 C.3       10 UNK         0.0316 
      9 C9         17.0433  -29.5915  -43.2474 C.ar      10 UNK        -0.0863 
     10 C10        18.0362  -30.4765  -43.6796 C.ar      10 UNK        -0.1009 
     11 C11        19.1903  -30.6753  -42.9165 C.ar      10 UNK        -0.0712 
     12 C12        19.3526  -29.9742  -41.7182 C.ar      10 UNK        -0.0894 
     13 C13        18.3666  -29.0891  -41.2747 C.ar      10 UNK        -0.0745 
     14 C14        17.2099  -28.9087  -42.0389 C.ar      10 UNK        -0.0972 
     15 C15        18.5398  -28.3342  -39.9659 C.3       10 UNK         0.0209 
     16 S16        18.8665  -26.5669  -40.2500 S.3       10 UNK        -0.2568 
     17 C17        20.6042  -26.5798  -40.8123 C.3       10 UNK        -0.0983 
     18 CA         20.7695  -26.5612  -42.3602 C.3       3 UNK         0.0876 
     19 N          19.9745  -25.5298  -43.0393 N.am      3 UNK        -0.4424 
     20 C          20.0874  -24.2016  -42.9112 C.2       2 UNK         0.4918 
     21 O          20.8961  -23.6508  -42.1638 O.2       2 UNK        -0.4875 
     22 CA         19.1455  -23.3185  -43.7548 C.3       2 UNK         0.0481 
     23 CB         19.8830  -22.7691  -44.9919 C.3       2 UNK        -0.1831 
     24 N          17.8566  -23.9235  -44.1327 N.am      2 UNK        -0.4498 
     25 C          17.6085  -24.9576  -44.9538 C.2       1 UNK         0.5027 
     26 O          18.4944  -25.6273  -45.4859 O.2       1 UNK        -0.4969 
     27 C          22.2526  -26.5016  -42.7943 C.2       3 UNK         0.5005 
     28 O          23.1490  -26.6878  -41.9697 O.2       3 UNK        -0.5279 
     29 N          22.4930  -26.2301  -44.0877 N.am      4 UNK        -0.4463 
     30 CA         23.8206  -26.0095  -44.6786 C.3       4 UNK         0.0283 
     31 CB         23.6551  -25.5709  -46.1424 C.3       4 UNK        -0.1875 
     32 C          24.7758  -27.2141  -44.5825 C.2       4 UNK         0.4949 
     33 O          25.9907  -27.0205  -44.5476 O.2       4 UNK        -0.5039 
     34 N          24.2120  -28.4263  -44.5163 N.am      5 UNK        -0.4663 
     35 CA         24.9340  -29.6865  -44.3192 C.3       5 UNK         0.0242 
     36 CB         24.2213  -30.7816  -45.1330 C.3       5 UNK        -0.1982 
     37 C          25.0656  -30.0785  -42.8311 C.2       5 UNK         0.5017 
     38 O          25.4692  -31.2088  -42.5505 O.2       5 UNK        -0.5012 
     39 N          24.7113  -29.1606  -41.9154 N.am      6 UNK        -0.4439 
     40 CA         24.5704  -29.3220  -40.4622 C.3       6 UNK         0.0297 
     41 CB         25.8610  -29.8702  -39.8149 C.3       6 UNK        -0.2006 
     42 C          23.3368  -30.1639  -40.0938 C.2       6 UNK         0.4892 
     43 O          22.6994  -30.7543  -40.9661 O.2       6 UNK        -0.5089 
     44 N          23.0192  -30.2201  -38.7931 N.am      7 UNK        -0.4243 
     45 CA         21.8884  -30.9814  -38.2427 C.3       7 UNK         0.0196 
     46 CB         21.7395  -30.6557  -36.7481 C.3       7 UNK        -0.2007 
     47 C          21.9870  -32.5049  -38.4585 C.2       7 UNK         0.5020 
     48 O          20.9600  -33.1830  -38.4563 O.2       7 UNK        -0.5147 
     49 N          23.2120  -33.0121  -38.6532 N.am      8 UNK        -0.4734 
     50 CA         23.4925  -34.4003  -39.0275 C.3       8 UNK         0.0238 
     51 CB         24.9536  -34.7230  -38.6718 C.3       8 UNK        -0.1912 
     52 C          23.2269  -34.6984  -40.5166 C.2       8 UNK         0.5038 
     53 O          23.1296  -35.8736  -40.8725 O.2       8 UNK        -0.5046 
     54 N          23.1279  -33.6514  -41.3489 N.am      9 UNK        -0.4200 
     55 CA         22.9392  -33.6971  -42.8059 C.3       9 UNK         0.0839 
     56 C          24.0876  -34.4484  -43.5357 C.2       9 UNK         0.5513 
     57 N          25.3206  -33.9825  -43.3902 N.am      9 UNK        -0.7519 
     58 O          23.8743  -35.4414  -44.2276 O.2       9 UNK        -0.4960 
     59 C59        21.5195  -34.1648  -43.2349 C.3       10 UNK        -0.0876 
     60 S60        20.1722  -33.2103  -42.4566 S.3       10 UNK        -0.2414 
     61 C61        20.2632  -31.6464  -43.3816 C.3       10 UNK         0.0169 
     62 H62        13.5993  -22.3180  -44.3043 H         1 UNK         0.0903 
     63 H63        14.5960  -21.1008  -45.1040 H         1 UNK         0.0903 
     64 H64        13.3068  -21.9124  -45.9962 H         1 UNK         0.0903 
     65 H65        14.6665  -24.2738  -44.0744 H         1 UNK         0.3096 
     66 H66        16.0392  -25.5245  -46.2743 H         1 UNK         0.1121 
     67 H67        16.1880  -26.6368  -43.4469 H         1 UNK         0.0849 
     68 H68        14.6328  -26.5772  -44.2234 H         1 UNK         0.0849 
     69 H69        15.5178  -30.3309  -44.5668 H         1 UNK         0.0865 
     70 H70        14.9387  -29.1272  -43.4484 H         1 UNK         0.0865 
     71 H71        17.9078  -31.0130  -44.6100 H         1 UNK         0.1346 
     72 H72        20.2448  -30.1279  -41.1285 H         1 UNK         0.1412 
     73 H73        16.4437  -28.2293  -41.6913 H         1 UNK         0.1426 
     74 H74        19.3400  -28.7653  -39.3624 H         1 UNK         0.0716 
     75 H75        17.6278  -28.4313  -39.3752 H         1 UNK         0.0716 
     76 H76        21.1059  -27.4517  -40.3883 H         1 UNK         0.0695 
     77 H77        21.0939  -25.7108  -40.3695 H         1 UNK         0.0695 
     78 H78        20.3955  -27.5137  -42.7372 H         1 UNK         0.0983 
     79 H79        19.3161  -25.8630  -43.7355 H         1 UNK         0.3095 
     80 H80        18.8874  -22.4652  -43.1256 H         1 UNK         0.0454 
     81 H81        19.2531  -22.0814  -45.5561 H         1 UNK         0.0851 
     82 H82        20.1995  -23.5644  -45.6672 H         1 UNK         0.0851 
     83 H83        20.7791  -22.2203  -44.6991 H         1 UNK         0.0851 
     84 H84        17.0463  -23.4741  -43.7294 H         1 UNK         0.2976 
     85 H85        21.6998  -26.0911  -44.6979 H         1 UNK         0.3116 
     86 H86        24.2856  -25.1880  -44.1294 H         1 UNK         0.0646 
     87 H87        24.6242  -25.3705  -46.6018 H         1 UNK         0.0847 
     88 H88        23.0682  -24.6555  -46.2204 H         1 UNK         0.0847 
     89 H89        23.1642  -26.3387  -46.7417 H         1 UNK         0.0847 
     90 H90        23.2043  -28.4828  -44.5489 H         1 UNK         0.3040 
     91 H91        25.9505  -29.5896  -44.7069 H         1 UNK         0.1015 
     92 H92        24.1707  -30.5175  -46.1894 H         1 UNK         0.0786 
     93 H93        23.2031  -30.9479  -44.7819 H         1 UNK         0.0786 
     94 H94        24.7534  -31.7310  -45.0695 H         1 UNK         0.0786 
     95 H95        24.3490  -28.2766  -42.2593 H         1 UNK         0.3172 
     96 H96        24.3972  -28.3186  -40.0705 H         1 UNK         0.0595 
     97 H97        26.0184  -30.9254  -40.0405 H         1 UNK         0.0839 
     98 H98        25.8295  -29.7762  -38.7292 H         1 UNK         0.0839 
     99 H99        26.7388  -29.3217  -40.1565 H         1 UNK         0.0839 
    100 H100       23.5821  -29.7052  -38.1309 H         1 UNK         0.2998 
    101 H101       20.9848  -30.6466  -38.7562 H         1 UNK         0.0822 
    102 H102       22.6255  -30.9454  -36.1815 H         1 UNK         0.0787 
    103 H103       21.5694  -29.5908  -36.5881 H         1 UNK         0.0787 
    104 H104       20.8891  -31.1855  -36.3160 H         1 UNK         0.0787 
    105 H105       23.9987  -32.3806  -38.6187 H         1 UNK         0.3055 
    106 H106       22.8428  -35.0578  -38.4450 H         1 UNK         0.1106 
    107 H107       25.1912  -35.7623  -38.9035 H         1 UNK         0.0828 
    108 H108       25.6529  -34.0982  -39.2292 H         1 UNK         0.0828 
    109 H109       25.1456  -34.5789  -37.6084 H         1 UNK         0.0828 
    110 H110       23.1747  -32.7142  -40.9655 H         1 UNK         0.2931 
    111 H111       23.0354  -32.6623  -43.1304 H         1 UNK         0.0412 
    112 H112       25.4777  -33.1099  -42.8930 H         1 UNK         0.3472 
    113 H113       26.0876  -34.4505  -43.8457 H         1 UNK         0.3472 
    114 H114       21.4083  -34.1012  -44.3188 H         1 UNK         0.0970 
    115 H115       21.3778  -35.2164  -42.9799 H         1 UNK         0.0970 
    116 H116       21.2430  -31.1905  -43.2383 H         1 UNK         0.0612 
    117 H117       20.1643  -31.8483  -44.4492 H         1 UNK         0.0612 
@<TRIPOS>BOND
     1    1    2 1    
     2    1   62 1    
     3    1   63 1    
     4    1   64 1    
     5    2    3 2    
     6    2    4 am   BACKBONE|DICT|INTERRES
     7    4    5 1    
     8    4   65 1    
     9    5    6 1    
    10    5   25 1    
    11    5   66 1    
    12    6    7 1    
    13    6   67 1    
    14    6   68 1    
    15    7    8 1    
    16    8    9 1    
    17    8   69 1    
    18    8   70 1    
    19    9   10 ar   
    20    9   14 ar   
    21   10   11 ar   
    22   10   71 1    
    23   11   12 ar   
    24   11   61 1    
    25   12   13 ar   
    26   12   72 1    
    27   13   14 ar   
    28   13   15 1    
    29   14   73 1    
    30   15   16 1    
    31   15   74 1    
    32   15   75 1    
    33   16   17 1    
    34   17   18 1    
    35   17   76 1    
    36   17   77 1    
    37   18   19 1    
    38   18   27 1    
    39   18   78 1    
    40   19   20 am   BACKBONE|DICT|INTERRES
    41   19   79 1    
    42   20   21 2    
    43   20   22 1    
    44   22   23 1    
    45   22   24 1    
    46   22   80 1    
    47   23   81 1    
    48   23   82 1    
    49   23   83 1    
    50   24   25 am   BACKBONE|DICT|INTERRES
    51   24   84 1    
    52   25   26 2    
    53   27   28 2    
    54   27   29 am   BACKBONE|DICT|INTERRES
    55   29   30 1    
    56   29   85 1    
    57   30   31 1    
    58   30   32 1    
    59   30   86 1    
    60   31   87 1    
    61   31   88 1    
    62   31   89 1    
    63   32   33 2    
    64   32   34 am   BACKBONE|DICT|INTERRES
    65   34   35 1    
    66   34   90 1    
    67   35   36 1    
    68   35   37 1    
    69   35   91 1    
    70   36   92 1    
    71   36   93 1    
    72   36   94 1    
    73   37   38 2    
    74   37   39 am   BACKBONE|DICT|INTERRES
    75   39   40 1    
    76   39   95 1    
    77   40   41 1    
    78   40   42 1    
    79   40   96 1    
    80   41   97 1    
    81   41   98 1    
    82   41   99 1    
    83   42   43 2    
    84   42   44 am   BACKBONE|DICT|INTERRES
    85   44   45 1    
    86   44  100 1    
    87   45   46 1    
    88   45   47 1    
    89   45  101 1    
    90   46  102 1    
    91   46  103 1    
    92   46  104 1    
    93   47   48 2    
    94   47   49 am   BACKBONE|DICT|INTERRES
    95   49   50 1    
    96   49  105 1    
    97   50   51 1    
    98   50   52 1    
    99   50  106 1    
   100   51  107 1    
   101   51  108 1    
   102   51  109 1    
   103   52   53 2    
   104   52   54 am   BACKBONE|DICT|INTERRES
   105   54   55 1    
   106   54  110 1    
   107   55   56 1    
   108   55   59 1    
   109   55  111 1    
   110   56   57 am   BACKBONE|DICT|INTERRES
   111   56   58 2    
   112   57  112 1    
   113   57  113 1    
   114   59   60 1    
   115   59  114 1    
   116   59  115 1    
   117   60   61 1    
   118   61  116 1    
   119   61  117 1    
@<TRIPOS>SUBSTRUCTURE
     1 UNK         1 GROUP             0       ****    0 ROOT    
