@<TRIPOS>MOLECULE
3R8
117   119    1
SMALL
USER_CHARGES


@<TRIPOS>ATOM
      1 CA         17.1020  -20.9829  -47.1865 C.3       0 UNK        -0.2013 
      2 C          17.5353  -21.7826  -45.9669 C.2       0 UNK         0.4866 
      3 O          17.3513  -21.3263  -44.8377 O.2       0 UNK        -0.5176 
      4 N          18.1194  -22.9666  -46.1854 N.am      1 UNK        -0.4884 
      5 CA         18.5359  -23.9057  -45.1396 C.3       1 UNK         0.0853 
      6 C6         19.5833  -24.9396  -45.6503 C.3       10 UNK        -0.0849 
      7 S7         19.2759  -25.6449  -47.3118 S.3       10 UNK        -0.2776 
      8 C8         18.1056  -27.0156  -46.9953 C.3       10 UNK         0.0316 
      9 C9         18.6446  -28.2531  -46.2719 C.ar      10 UNK        -0.0863 
     10 C10        19.9887  -28.4214  -45.9102 C.ar      10 UNK        -0.1009 
     11 C11        20.4269  -29.5893  -45.2741 C.ar      10 UNK        -0.0712 
     12 C12        19.4994  -30.6095  -45.0200 C.ar      10 UNK        -0.0894 
     13 C13        18.1501  -30.4448  -45.3397 C.ar      10 UNK        -0.0745 
     14 C14        17.7354  -29.2717  -45.9733 C.ar      10 UNK        -0.0972 
     15 C15        17.1346  -31.5264  -44.9929 C.3       10 UNK         0.0209 
     16 S16        15.9538  -30.9705  -43.7174 S.3       10 UNK        -0.2568 
     17 C17        16.9305  -31.0828  -42.1758 C.3       10 UNK        -0.0983 
     18 CA         17.8475  -29.8571  -41.9206 C.3       3 UNK         0.0876 
     19 N          17.1456  -28.5726  -42.0708 N.am      3 UNK        -0.4424 
     20 C          17.7322  -27.4139  -42.3935 C.2       2 UNK         0.4918 
     21 O          18.9583  -27.2781  -42.4828 O.2       2 UNK        -0.4875 
     22 CA         16.8186  -26.2013  -42.6173 C.3       2 UNK         0.0481 
     23 CB         16.3223  -25.6364  -41.2765 C.3       2 UNK        -0.1831 
     24 N          17.6214  -25.1904  -43.2957 N.am      2 UNK        -0.4498 
     25 C          17.3389  -24.6067  -44.4627 C.2       1 UNK         0.5027 
     26 O          16.2364  -24.6577  -45.0153 O.2       1 UNK        -0.4969 
     27 C          18.6627  -29.9656  -40.6086 C.2       3 UNK         0.5005 
     28 O          18.5612  -30.9566  -39.8851 O.2       3 UNK        -0.5279 
     29 N          19.4685  -28.9342  -40.3447 N.am      4 UNK        -0.4463 
     30 CA         20.4485  -28.8079  -39.2687 C.3       4 UNK         0.0283 
     31 CB         19.7427  -28.4083  -37.9587 C.3       4 UNK        -0.1875 
     32 C          21.5644  -27.8114  -39.6467 C.2       4 UNK         0.4949 
     33 O          22.3715  -27.4617  -38.7861 O.2       4 UNK        -0.5039 
     34 N          21.6003  -27.3538  -40.9109 N.am      5 UNK        -0.4663 
     35 CA         22.5295  -26.3366  -41.4199 C.3       5 UNK         0.0242 
     36 CB         21.9668  -25.7762  -42.7384 C.3       5 UNK        -0.1982 
     37 C          23.9795  -26.8231  -41.6120 C.2       5 UNK         0.5017 
     38 O          24.8558  -25.9994  -41.8781 O.2       5 UNK        -0.5012 
     39 N          24.2118  -28.1324  -41.4837 N.am      6 UNK        -0.4439 
     40 CA         25.5136  -28.7846  -41.5522 C.3       6 UNK         0.0297 
     41 CB         25.7917  -29.2325  -42.9978 C.3       6 UNK        -0.2006 
     42 C          25.4897  -29.9846  -40.6028 C.2       6 UNK         0.4892 
     43 O          24.4104  -30.5140  -40.3232 O.2       6 UNK        -0.5089 
     44 N          26.6755  -30.4235  -40.1616 N.am      7 UNK        -0.4243 
     45 CA         26.8596  -31.5663  -39.2572 C.3       7 UNK         0.0196 
     46 CB         28.3355  -31.6494  -38.8356 C.3       7 UNK        -0.2007 
     47 C          26.3910  -32.9105  -39.8446 C.2       7 UNK         0.5020 
     48 O          25.9705  -33.7861  -39.0888 O.2       7 UNK        -0.5147 
     49 N          26.4523  -33.0433  -41.1769 N.am      8 UNK        -0.4734 
     50 CA         25.9213  -34.1900  -41.9192 C.3       8 UNK         0.0238 
     51 CB         26.5479  -34.2148  -43.3230 C.3       8 UNK        -0.1912 
     52 C          24.3845  -34.1806  -42.0200 C.2       8 UNK         0.5038 
     53 O          23.7888  -35.2486  -42.1674 O.2       8 UNK        -0.5046 
     54 N          23.7799  -32.9881  -41.9534 N.am      9 UNK        -0.4200 
     55 CA         22.3272  -32.7771  -41.9819 C.3       9 UNK         0.0839 
     56 C          21.7062  -32.9184  -40.5693 C.2       9 UNK         0.5513 
     57 N          22.2992  -32.3151  -39.5464 N.am      9 UNK        -0.7519 
     58 O          20.6951  -33.5938  -40.4017 O.2       9 UNK        -0.4960 
     59 C59        21.9560  -31.4170  -42.6271 C.3       10 UNK        -0.0876 
     60 S60        22.5035  -31.3294  -44.3673 S.3       10 UNK        -0.2414 
     61 C61        21.9027  -29.6806  -44.8721 C.3       10 UNK         0.0169 
     62 H62        17.6017  -20.0146  -47.1978 H         1 UNK         0.0903 
     63 H63        17.3396  -21.4979  -48.1173 H         1 UNK         0.0903 
     64 H64        16.0262  -20.8114  -47.1592 H         1 UNK         0.0903 
     65 H65        18.2266  -23.3102  -47.1301 H         1 UNK         0.3096 
     66 H66        19.0201  -23.3150  -44.3577 H         1 UNK         0.1121 
     67 H67        19.7352  -25.7498  -44.9350 H         1 UNK         0.0849 
     68 H68        20.5519  -24.4406  -45.7089 H         1 UNK         0.0849 
     69 H69        17.2399  -26.6338  -46.4564 H         1 UNK         0.0865 
     70 H70        17.7260  -27.3413  -47.9648 H         1 UNK         0.0865 
     71 H71        20.7103  -27.6462  -46.1228 H         1 UNK         0.1346 
     72 H72        19.8058  -31.5300  -44.5475 H         1 UNK         0.1412 
     73 H73        16.6914  -29.1522  -46.2305 H         1 UNK         0.1426 
     74 H74        17.6265  -32.4425  -44.6621 H         1 UNK         0.0716 
     75 H75        16.5779  -31.7878  -45.8939 H         1 UNK         0.0716 
     76 H76        16.2253  -31.1995  -41.3510 H         1 UNK         0.0695 
     77 H77        17.5188  -32.0021  -42.2026 H         1 UNK         0.0695 
     78 H78        18.6100  -29.8794  -42.6956 H         1 UNK         0.0983 
     79 H79        16.1397  -28.6108  -41.9931 H         1 UNK         0.3095 
     80 H80        15.9703  -26.5086  -43.2324 H         1 UNK         0.0454 
     81 H81        15.7054  -26.3626  -40.7461 H         1 UNK         0.0851 
     82 H82        17.1498  -25.3675  -40.6184 H         1 UNK         0.0851 
     83 H83        15.7132  -24.7450  -41.4267 H         1 UNK         0.0851 
     84 H84        18.5756  -25.1558  -42.9615 H         1 UNK         0.2976 
     85 H85        19.4077  -28.1514  -40.9921 H         1 UNK         0.3116 
     86 H86        20.9309  -29.7767  -39.1258 H         1 UNK         0.0646 
     87 H87        20.4530  -28.3360  -37.1342 H         1 UNK         0.0847 
     88 H88        18.9923  -29.1442  -37.6698 H         1 UNK         0.0847 
     89 H89        19.2467  -27.4415  -38.0501 H         1 UNK         0.0847 
     90 H90        20.9118  -27.6754  -41.5774 H         1 UNK         0.3040 
     91 H91        22.5685  -25.5212  -40.6941 H         1 UNK         0.1015 
     92 H92        20.9893  -25.3192  -42.5866 H         1 UNK         0.0786 
     93 H93        21.8602  -26.5531  -43.4962 H         1 UNK         0.0786 
     94 H94        22.6192  -25.0052  -43.1508 H         1 UNK         0.0786 
     95 H95        23.4604  -28.7319  -41.1698 H         1 UNK         0.3172 
     96 H96        26.2926  -28.0948  -41.2203 H         1 UNK         0.0595 
     97 H97        25.7907  -28.3834  -43.6815 H         1 UNK         0.0839 
     98 H98        25.0445  -29.9438  -43.3513 H         1 UNK         0.0839 
     99 H99        26.7672  -29.7125  -43.0822 H         1 UNK         0.0839 
    100 H100       27.5123  -29.9352  -40.4485 H         1 UNK         0.2998 
    101 H101       26.2587  -31.3788  -38.3644 H         1 UNK         0.0822 
    102 H102       28.6566  -30.7383  -38.3302 H         1 UNK         0.0787 
    103 H103       28.4972  -32.4758  -38.1418 H         1 UNK         0.0787 
    104 H104       28.9923  -31.8097  -39.6916 H         1 UNK         0.0787 
    105 H105       26.8393  -32.2834  -41.7174 H         1 UNK         0.3055 
    106 H106       26.2089  -35.1061  -41.3977 H         1 UNK         0.1106 
    107 H107       26.2956  -33.3211  -43.8954 H         1 UNK         0.0828 
    108 H108       27.6345  -34.2876  -43.2724 H         1 UNK         0.0828 
    109 H109       26.1940  -35.0756  -43.8922 H         1 UNK         0.0828 
    110 H110       24.3378  -32.1715  -41.7494 H         1 UNK         0.2931 
    111 H111       21.8798  -33.5559  -42.6035 H         1 UNK         0.0412 
    112 H112       21.9118  -32.4125  -38.6220 H         1 UNK         0.3472 
    113 H113       23.1203  -31.7363  -39.6989 H         1 UNK         0.3472 
    114 H114       22.4042  -30.5907  -42.0749 H         1 UNK         0.0970 
    115 H115       20.8785  -31.2586  -42.5820 H         1 UNK         0.0970 
    116 H116       22.5127  -29.3591  -45.7175 H         1 UNK         0.0612 
    117 H117       22.0980  -28.9714  -44.0668 H         1 UNK         0.0612 
@<TRIPOS>BOND
     1    1    2 1    
     2    1   62 1    
     3    1   63 1    
     4    1   64 1    
     5    2    3 2    
     6    2    4 am   BACKBONE|DICT|INTERRES
     7    4    5 1    
     8    4   65 1    
     9    5    6 1    
    10    5   25 1    
    11    5   66 1    
    12    6    7 1    
    13    6   67 1    
    14    6   68 1    
    15    7    8 1    
    16    8    9 1    
    17    8   69 1    
    18    8   70 1    
    19    9   10 ar   
    20    9   14 ar   
    21   10   11 ar   
    22   10   71 1    
    23   11   12 ar   
    24   11   61 1    
    25   12   13 ar   
    26   12   72 1    
    27   13   14 ar   
    28   13   15 1    
    29   14   73 1    
    30   15   16 1    
    31   15   74 1    
    32   15   75 1    
    33   16   17 1    
    34   17   18 1    
    35   17   76 1    
    36   17   77 1    
    37   18   19 1    
    38   18   27 1    
    39   18   78 1    
    40   19   20 am   BACKBONE|DICT|INTERRES
    41   19   79 1    
    42   20   21 2    
    43   20   22 1    
    44   22   23 1    
    45   22   24 1    
    46   22   80 1    
    47   23   81 1    
    48   23   82 1    
    49   23   83 1    
    50   24   25 am   BACKBONE|DICT|INTERRES
    51   24   84 1    
    52   25   26 2    
    53   27   28 2    
    54   27   29 am   BACKBONE|DICT|INTERRES
    55   29   30 1    
    56   29   85 1    
    57   30   31 1    
    58   30   32 1    
    59   30   86 1    
    60   31   87 1    
    61   31   88 1    
    62   31   89 1    
    63   32   33 2    
    64   32   34 am   BACKBONE|DICT|INTERRES
    65   34   35 1    
    66   34   90 1    
    67   35   36 1    
    68   35   37 1    
    69   35   91 1    
    70   36   92 1    
    71   36   93 1    
    72   36   94 1    
    73   37   38 2    
    74   37   39 am   BACKBONE|DICT|INTERRES
    75   39   40 1    
    76   39   95 1    
    77   40   41 1    
    78   40   42 1    
    79   40   96 1    
    80   41   97 1    
    81   41   98 1    
    82   41   99 1    
    83   42   43 2    
    84   42   44 am   BACKBONE|DICT|INTERRES
    85   44   45 1    
    86   44  100 1    
    87   45   46 1    
    88   45   47 1    
    89   45  101 1    
    90   46  102 1    
    91   46  103 1    
    92   46  104 1    
    93   47   48 2    
    94   47   49 am   BACKBONE|DICT|INTERRES
    95   49   50 1    
    96   49  105 1    
    97   50   51 1    
    98   50   52 1    
    99   50  106 1    
   100   51  107 1    
   101   51  108 1    
   102   51  109 1    
   103   52   53 2    
   104   52   54 am   BACKBONE|DICT|INTERRES
   105   54   55 1    
   106   54  110 1    
   107   55   56 1    
   108   55   59 1    
   109   55  111 1    
   110   56   57 am   BACKBONE|DICT|INTERRES
   111   56   58 2    
   112   57  112 1    
   113   57  113 1    
   114   59   60 1    
   115   59  114 1    
   116   59  115 1    
   117   60   61 1    
   118   61  116 1    
   119   61  117 1    
@<TRIPOS>SUBSTRUCTURE
     1 UNK         1 GROUP             0       ****    0 ROOT    
