@<TRIPOS>MOLECULE
3R8
117   119    1
SMALL
USER_CHARGES


@<TRIPOS>ATOM
      1 CA         17.7812  -22.5184  -48.1120 C.3       0 UNK        -0.2013 
      2 C          18.9174  -23.4077  -47.6294 C.2       0 UNK         0.4866 
      3 O          20.0717  -22.9797  -47.6306 O.2       0 UNK        -0.5176 
      4 N          18.6002  -24.6435  -47.2189 N.am      1 UNK        -0.4884 
      5 CA         19.5653  -25.6282  -46.7093 C.3       1 UNK         0.0853 
      6 C6         18.9582  -27.0548  -46.7139 C.3       10 UNK        -0.0849 
      7 S7         20.2225  -28.3657  -46.8316 S.3       10 UNK        -0.2776 
      8 C8         19.1874  -29.8644  -46.8330 C.3       10 UNK         0.0316 
      9 C9         18.6797  -30.2027  -45.4386 C.ar      10 UNK        -0.0863 
     10 C10        19.4407  -31.0136  -44.5908 C.ar      10 UNK        -0.1009 
     11 C11        18.9775  -31.3349  -43.3113 C.ar      10 UNK        -0.0712 
     12 C12        17.7488  -30.8309  -42.8775 C.ar      10 UNK        -0.0894 
     13 C13        16.9848  -30.0110  -43.7123 C.ar      10 UNK        -0.0745 
     14 C14        17.4468  -29.7138  -44.9971 C.ar      10 UNK        -0.0972 
     15 C15        15.6672  -29.4312  -43.2242 C.3       10 UNK         0.0209 
     16 S16        15.8615  -27.6987  -42.6993 S.3       10 UNK        -0.2568 
     17 C17        16.8953  -27.8726  -41.2032 C.3       10 UNK        -0.0983 
     18 CA         18.3835  -27.5063  -41.4416 C.3       3 UNK         0.0876 
     19 N          18.5168  -26.1636  -42.0281 N.am      3 UNK        -0.4424 
     20 C          19.6406  -25.4648  -42.2334 C.2       2 UNK         0.4918 
     21 O          20.7470  -25.7924  -41.8083 O.2       2 UNK        -0.4875 
     22 CA         19.4878  -24.2040  -43.1008 C.3       2 UNK         0.0481 
     23 CB         20.6681  -23.2218  -42.9452 C.3       2 UNK        -0.1831 
     24 N          19.2763  -24.5676  -44.5074 N.am      2 UNK        -0.4498 
     25 C          20.1070  -25.2579  -45.3100 C.2       1 UNK         0.5027 
     26 O          21.2479  -25.6008  -44.9986 O.2       1 UNK        -0.4969 
     27 C          19.1914  -27.7484  -40.1470 C.2       3 UNK         0.5005 
     28 O          19.7460  -28.8342  -39.9760 O.2       3 UNK        -0.5279 
     29 N          19.2469  -26.7394  -39.2658 N.am      4 UNK        -0.4463 
     30 CA         19.9757  -26.7872  -37.9947 C.3       4 UNK         0.0283 
     31 CB         19.3944  -25.7262  -37.0458 C.3       4 UNK        -0.1875 
     32 C          21.4975  -26.5928  -38.1386 C.2       4 UNK         0.4949 
     33 O          22.2354  -27.0070  -37.2442 O.2       4 UNK        -0.5039 
     34 N          21.9409  -25.9506  -39.2270 N.am      5 UNK        -0.4663 
     35 CA         23.3462  -25.6332  -39.5001 C.3       5 UNK         0.0242 
     36 CB         23.4297  -24.1941  -40.0361 C.3       5 UNK        -0.1982 
     37 C          23.9911  -26.6077  -40.5002 C.2       5 UNK         0.5017 
     38 O          25.2201  -26.6781  -40.5493 O.2       5 UNK        -0.5012 
     39 N          23.1676  -27.3143  -41.2880 N.am      6 UNK        -0.4439 
     40 CA         23.5619  -28.2818  -42.3143 C.3       6 UNK         0.0297 
     41 CB         22.2934  -28.8502  -42.9765 C.3       6 UNK        -0.2006 
     42 C          24.4409  -29.4215  -41.7666 C.2       6 UNK         0.4892 
     43 O          24.1670  -29.9435  -40.6841 O.2       6 UNK        -0.5089 
     44 N          25.4661  -29.7960  -42.5439 N.am      7 UNK        -0.4243 
     45 CA         26.4007  -30.8838  -42.2289 C.3       7 UNK         0.0196 
     46 CB         27.7046  -30.6626  -43.0141 C.3       7 UNK        -0.2007 
     47 C          25.8285  -32.2848  -42.5188 C.2       7 UNK         0.5020 
     48 O          26.3916  -33.2753  -42.0509 O.2       7 UNK        -0.5147 
     49 N          24.7399  -32.3462  -43.2957 N.am      8 UNK        -0.4734 
     50 CA         23.9776  -33.5576  -43.6025 C.3       8 UNK         0.0238 
     51 CB         23.1446  -33.2868  -44.8699 C.3       8 UNK        -0.1912 
     52 C          23.0856  -33.9963  -42.4224 C.2       8 UNK         0.5038 
     53 O          23.0678  -33.3416  -41.3771 O.2       8 UNK        -0.5046 
     54 N          22.3317  -35.0829  -42.6332 N.am      9 UNK        -0.4200 
     55 CA         21.4015  -35.6962  -41.6687 C.3       9 UNK         0.0839 
     56 C          22.1331  -36.4084  -40.4891 C.2       9 UNK         0.5513 
     57 N          21.4135  -36.8378  -39.4603 N.am      9 UNK        -0.7519 
     58 O          23.3434  -36.6255  -40.5122 O.2       9 UNK        -0.4960 
     59 C59        20.2651  -34.7332  -41.2010 C.3       10 UNK        -0.0876 
     60 S60        19.3360  -33.9688  -42.5759 S.3       10 UNK        -0.2414 
     61 C61        19.8011  -32.2186  -42.3899 C.3       10 UNK         0.0169 
     62 H62        17.9533  -22.2182  -49.1453 H         1 UNK         0.0903 
     63 H63        16.8168  -23.0236  -48.0624 H         1 UNK         0.0903 
     64 H64        17.7242  -21.6181  -47.5009 H         1 UNK         0.0903 
     65 H65        17.6356  -24.9435  -47.2543 H         1 UNK         0.3096 
     66 H66        20.4187  -25.6168  -47.3919 H         1 UNK         0.1121 
     67 H67        18.3362  -27.2160  -45.8320 H         1 UNK         0.0849 
     68 H68        18.2987  -27.1778  -47.5748 H         1 UNK         0.0849 
     69 H69        18.3536  -29.7398  -47.5258 H         1 UNK         0.0865 
     70 H70        19.7771  -30.6967  -47.2203 H         1 UNK         0.0865 
     71 H71        20.3922  -31.3962  -44.9301 H         1 UNK         0.1346 
     72 H72        17.3934  -31.0721  -41.8851 H         1 UNK         0.1412 
     73 H73        16.8511  -29.0861  -45.6456 H         1 UNK         0.1426 
     74 H74        15.2605  -30.0220  -42.4018 H         1 UNK         0.0716 
     75 H75        14.9290  -29.4770  -44.0263 H         1 UNK         0.0716 
     76 H76        16.8032  -28.8909  -40.8209 H         1 UNK         0.0695 
     77 H77        16.4663  -27.2274  -40.4341 H         1 UNK         0.0695 
     78 H78        18.7882  -28.1954  -42.1858 H         1 UNK         0.0983 
     79 H79        17.6622  -25.8045  -42.4292 H         1 UNK         0.3095 
     80 H80        18.5861  -23.6872  -42.7688 H         1 UNK         0.0454 
     81 H81        21.6194  -23.6707  -43.2320 H         1 UNK         0.0851 
     82 H82        20.7655  -22.8956  -41.9092 H         1 UNK         0.0851 
     83 H83        20.5235  -22.3299  -43.5545 H         1 UNK         0.0851 
     84 H84        18.3717  -24.3280  -44.8881 H         1 UNK         0.2976 
     85 H85        18.7656  -25.8797  -39.4884 H         1 UNK         0.3116 
     86 H86        19.8146  -27.7678  -37.5410 H         1 UNK         0.0646 
     87 H87        19.5180  -24.7174  -37.4418 H         1 UNK         0.0847 
     88 H88        19.8913  -25.7568  -36.0750 H         1 UNK         0.0847 
     89 H89        18.3316  -25.8909  -36.8675 H         1 UNK         0.0847 
     90 H90        21.2793  -25.7042  -39.9568 H         1 UNK         0.3040 
     91 H91        23.9281  -25.6844  -38.5769 H         1 UNK         0.1015 
     92 H92        22.8931  -24.0842  -40.9790 H         1 UNK         0.0786 
     93 H93        24.4657  -23.9033  -40.2152 H         1 UNK         0.0786 
     94 H94        23.0115  -23.4808  -39.3257 H         1 UNK         0.0786 
     95 H95        22.1771  -27.1130  -41.2205 H         1 UNK         0.3172 
     96 H96        24.1280  -27.7325  -43.0693 H         1 UNK         0.0595 
     97 H97        21.6655  -29.3776  -42.2564 H         1 UNK         0.0839 
     98 H98        22.5421  -29.5554  -43.7703 H         1 UNK         0.0839 
     99 H99        21.6915  -28.0602  -43.4279 H         1 UNK         0.0839 
    100 H100       25.6224  -29.3061  -43.4137 H         1 UNK         0.2998 
    101 H101       26.6338  -30.8438  -41.1624 H         1 UNK         0.0822 
    102 H102       28.1574  -29.7014  -42.7695 H         1 UNK         0.0787 
    103 H103       28.4390  -31.4336  -42.7767 H         1 UNK         0.0787 
    104 H104       27.5380  -30.6928  -44.0917 H         1 UNK         0.0787 
    105 H105       24.3391  -31.4732  -43.6017 H         1 UNK         0.3055 
    106 H106       24.6797  -34.3695  -43.8064 H         1 UNK         0.1106 
    107 H107       22.6095  -34.1770  -45.2016 H         1 UNK         0.0828 
    108 H108       22.4043  -32.5055  -44.7015 H         1 UNK         0.0828 
    109 H109       23.7778  -32.9727  -45.7001 H         1 UNK         0.0828 
    110 H110       22.4221  -35.5726  -43.5108 H         1 UNK         0.2931 
    111 H111       20.9268  -36.5049  -42.2256 H         1 UNK         0.0412 
    112 H112       20.4147  -36.7087  -39.4251 H         1 UNK         0.3472 
    113 H113       21.8813  -37.3152  -38.7050 H         1 UNK         0.3472 
    114 H114       20.6638  -33.9586  -40.5440 H         1 UNK         0.0970 
    115 H115       19.5327  -35.2750  -40.6016 H         1 UNK         0.0970 
    116 H116       19.6550  -31.9072  -41.3542 H         1 UNK         0.0612 
    117 H117       20.8630  -32.0936  -42.6022 H         1 UNK         0.0612 
@<TRIPOS>BOND
     1    1    2 1    
     2    1   62 1    
     3    1   63 1    
     4    1   64 1    
     5    2    3 2    
     6    2    4 am   BACKBONE|DICT|INTERRES
     7    4    5 1    
     8    4   65 1    
     9    5    6 1    
    10    5   25 1    
    11    5   66 1    
    12    6    7 1    
    13    6   67 1    
    14    6   68 1    
    15    7    8 1    
    16    8    9 1    
    17    8   69 1    
    18    8   70 1    
    19    9   10 ar   
    20    9   14 ar   
    21   10   11 ar   
    22   10   71 1    
    23   11   12 ar   
    24   11   61 1    
    25   12   13 ar   
    26   12   72 1    
    27   13   14 ar   
    28   13   15 1    
    29   14   73 1    
    30   15   16 1    
    31   15   74 1    
    32   15   75 1    
    33   16   17 1    
    34   17   18 1    
    35   17   76 1    
    36   17   77 1    
    37   18   19 1    
    38   18   27 1    
    39   18   78 1    
    40   19   20 am   BACKBONE|DICT|INTERRES
    41   19   79 1    
    42   20   21 2    
    43   20   22 1    
    44   22   23 1    
    45   22   24 1    
    46   22   80 1    
    47   23   81 1    
    48   23   82 1    
    49   23   83 1    
    50   24   25 am   BACKBONE|DICT|INTERRES
    51   24   84 1    
    52   25   26 2    
    53   27   28 2    
    54   27   29 am   BACKBONE|DICT|INTERRES
    55   29   30 1    
    56   29   85 1    
    57   30   31 1    
    58   30   32 1    
    59   30   86 1    
    60   31   87 1    
    61   31   88 1    
    62   31   89 1    
    63   32   33 2    
    64   32   34 am   BACKBONE|DICT|INTERRES
    65   34   35 1    
    66   34   90 1    
    67   35   36 1    
    68   35   37 1    
    69   35   91 1    
    70   36   92 1    
    71   36   93 1    
    72   36   94 1    
    73   37   38 2    
    74   37   39 am   BACKBONE|DICT|INTERRES
    75   39   40 1    
    76   39   95 1    
    77   40   41 1    
    78   40   42 1    
    79   40   96 1    
    80   41   97 1    
    81   41   98 1    
    82   41   99 1    
    83   42   43 2    
    84   42   44 am   BACKBONE|DICT|INTERRES
    85   44   45 1    
    86   44  100 1    
    87   45   46 1    
    88   45   47 1    
    89   45  101 1    
    90   46  102 1    
    91   46  103 1    
    92   46  104 1    
    93   47   48 2    
    94   47   49 am   BACKBONE|DICT|INTERRES
    95   49   50 1    
    96   49  105 1    
    97   50   51 1    
    98   50   52 1    
    99   50  106 1    
   100   51  107 1    
   101   51  108 1    
   102   51  109 1    
   103   52   53 2    
   104   52   54 am   BACKBONE|DICT|INTERRES
   105   54   55 1    
   106   54  110 1    
   107   55   56 1    
   108   55   59 1    
   109   55  111 1    
   110   56   57 am   BACKBONE|DICT|INTERRES
   111   56   58 2    
   112   57  112 1    
   113   57  113 1    
   114   59   60 1    
   115   59  114 1    
   116   59  115 1    
   117   60   61 1    
   118   61  116 1    
   119   61  117 1    
@<TRIPOS>SUBSTRUCTURE
     1 UNK         1 GROUP             0       ****    0 ROOT    
