@<TRIPOS>MOLECULE
3R8
117   119    1
SMALL
USER_CHARGES


@<TRIPOS>ATOM
      1 CA         17.4375  -23.5908  -40.2256 C.3       0 UNK        -0.2013 
      2 C          17.0904  -23.9866  -41.6531 C.2       0 UNK         0.4866 
      3 O          15.9842  -23.7077  -42.1160 O.2       0 UNK        -0.5176 
      4 N          18.0272  -24.6321  -42.3533 N.am      1 UNK        -0.4884 
      5 CA         17.9058  -25.0747  -43.7401 C.3       1 UNK         0.0853 
      6 C6         17.0506  -26.3604  -43.8688 C.3       10 UNK        -0.0849 
      7 S7         16.4598  -26.6673  -45.5626 S.3       10 UNK        -0.2776 
      8 C8         15.5913  -28.2533  -45.3275 C.3       10 UNK         0.0316 
      9 C9         16.5332  -29.3856  -44.9326 C.ar      10 UNK        -0.0863 
     10 C10        16.3758  -30.0503  -43.7129 C.ar      10 UNK        -0.1009 
     11 C11        17.2068  -31.1237  -43.3721 C.ar      10 UNK        -0.0712 
     12 C12        18.2223  -31.5094  -44.2548 C.ar      10 UNK        -0.0894 
     13 C13        18.4031  -30.8456  -45.4737 C.ar      10 UNK        -0.0745 
     14 C14        17.5400  -29.7950  -45.8090 C.ar      10 UNK        -0.0972 
     15 C15        19.4839  -31.3271  -46.4416 C.3       10 UNK         0.0209 
     16 S16        20.2028  -30.0008  -47.4735 S.3       10 UNK        -0.2568 
     17 C17        21.8335  -29.7197  -46.7042 C.3       10 UNK        -0.0983 
     18 CA         21.8670  -28.6770  -45.5538 C.3       3 UNK         0.0876 
     19 N          21.1338  -27.4460  -45.8650 N.am      3 UNK        -0.4424 
     20 C          21.7046  -26.2678  -46.1390 C.2       2 UNK         0.4918 
     21 O          22.9197  -26.0974  -46.2409 O.2       2 UNK        -0.4875 
     22 CA         20.7704  -25.0590  -46.3312 C.3       2 UNK         0.0481 
     23 CB         20.4841  -24.8476  -47.8267 C.3       2 UNK        -0.1831 
     24 N          19.4961  -25.1058  -45.6020 N.am      2 UNK        -0.4498 
     25 C          19.3346  -25.2601  -44.2802 C.2       1 UNK         0.5027 
     26 O          20.2453  -25.5526  -43.4962 O.2       1 UNK        -0.4969 
     27 C          21.4747  -29.2577  -44.1808 C.2       3 UNK         0.5005 
     28 O          21.9532  -30.3399  -43.8367 O.2       3 UNK        -0.5279 
     29 N          20.6697  -28.5279  -43.3906 N.am      4 UNK        -0.4463 
     30 CA         20.4413  -28.8464  -41.9806 C.3       4 UNK         0.0283 
     31 CB         19.1157  -28.2641  -41.4715 C.3       4 UNK        -0.1875 
     32 C          21.6148  -28.3435  -41.1385 C.2       4 UNK         0.4949 
     33 O          22.1847  -29.1197  -40.3752 O.2       4 UNK        -0.5039 
     34 N          21.9832  -27.0703  -41.3228 N.am      5 UNK        -0.4663 
     35 CA         23.1765  -26.4825  -40.7203 C.3       5 UNK         0.0242 
     36 CB         22.9112  -24.9957  -40.4357 C.3       5 UNK        -0.1982 
     37 C          24.3611  -26.6400  -41.6928 C.2       5 UNK         0.5017 
     38 O          24.1574  -26.4675  -42.8940 O.2       5 UNK        -0.5012 
     39 N          25.5893  -26.9299  -41.2400 N.am      6 UNK        -0.4439 
     40 CA         26.0149  -27.2985  -39.8823 C.3       6 UNK         0.0297 
     41 CB         27.4328  -26.7434  -39.6596 C.3       6 UNK        -0.2006 
     42 C          25.9974  -28.8268  -39.6524 C.2       6 UNK         0.4892 
     43 O          26.4035  -29.2771  -38.5812 O.2       6 UNK        -0.5089 
     44 N          25.5721  -29.5968  -40.6647 N.am      7 UNK        -0.4243 
     45 CA         25.6484  -31.0600  -40.7322 C.3       7 UNK         0.0196 
     46 CB         25.3769  -31.4873  -42.1858 C.3       7 UNK        -0.2007 
     47 C          24.7115  -31.8264  -39.7796 C.2       7 UNK         0.5020 
     48 O          24.8637  -33.0424  -39.6606 O.2       7 UNK        -0.5147 
     49 N          23.7313  -31.1401  -39.1752 N.am      8 UNK        -0.4734 
     50 CA         22.6144  -31.6888  -38.3913 C.3       8 UNK         0.0238 
     51 CB         23.1128  -32.3538  -37.0901 C.3       8 UNK        -0.1912 
     52 C          21.7218  -32.6088  -39.2477 C.2       8 UNK         0.5038 
     53 O          21.3125  -33.6775  -38.7908 O.2       8 UNK        -0.5046 
     54 N          21.4828  -32.1769  -40.4941 N.am      9 UNK        -0.4200 
     55 CA         20.7964  -32.9095  -41.5729 C.3       9 UNK         0.0839 
     56 C          21.5799  -34.1398  -42.1251 C.2       9 UNK         0.5513 
     57 N          22.8246  -34.3845  -41.7298 N.am      9 UNK        -0.7519 
     58 O          21.0596  -34.8745  -42.9607 O.2       9 UNK        -0.4960 
     59 C59        19.3128  -33.2493  -41.2476 C.3       10 UNK        -0.0876 
     60 S60        18.3035  -31.7721  -40.8713 S.3       10 UNK        -0.2414 
     61 C61        16.9492  -31.9012  -42.0846 C.3       10 UNK         0.0169 
     62 H62        16.7342  -24.0461  -39.5289 H         1 UNK         0.0903 
     63 H63        18.4427  -23.9072  -39.9472 H         1 UNK         0.0903 
     64 H64        17.3786  -22.5087  -40.1112 H         1 UNK         0.0903 
     65 H65        18.9465  -24.7967  -41.9603 H         1 UNK         0.3096 
     66 H66        17.4330  -24.2665  -44.3036 H         1 UNK         0.1121 
     67 H67        16.1702  -26.2958  -43.2276 H         1 UNK         0.0849 
     68 H68        17.6064  -27.2319  -43.5301 H         1 UNK         0.0849 
     69 H69        14.8037  -28.1223  -44.5837 H         1 UNK         0.0865 
     70 H70        15.0887  -28.5207  -46.2581 H         1 UNK         0.0865 
     71 H71        15.5848  -29.7502  -43.0392 H         1 UNK         0.1346 
     72 H72        18.8601  -32.3444  -44.0031 H         1 UNK         0.1412 
     73 H73        17.6385  -29.2913  -46.7605 H         1 UNK         0.1426 
     74 H74        19.0370  -32.0695  -47.1037 H         1 UNK         0.0716 
     75 H75        20.2787  -31.8408  -45.8984 H         1 UNK         0.0716 
     76 H76        22.2687  -30.6733  -46.4001 H         1 UNK         0.0695 
     77 H77        22.4847  -29.3614  -47.5028 H         1 UNK         0.0695 
     78 H78        22.9203  -28.4264  -45.4081 H         1 UNK         0.0983 
     79 H79        20.1263  -27.5147  -45.8673 H         1 UNK         0.3095 
     80 H80        21.3087  -24.1828  -45.9646 H         1 UNK         0.0454 
     81 H81        21.4114  -24.7789  -48.3974 H         1 UNK         0.0851 
     82 H82        19.9045  -25.6709  -48.2464 H         1 UNK         0.0851 
     83 H83        19.9325  -23.9237  -48.0009 H         1 UNK         0.0851 
     84 H84        18.6698  -24.9262  -46.1559 H         1 UNK         0.2976 
     85 H85        20.4062  -27.5993  -43.6955 H         1 UNK         0.3116 
     86 H86        20.3825  -29.9283  -41.8660 H         1 UNK         0.0646 
     87 H87        19.0614  -27.1841  -41.5964 H         1 UNK         0.0847 
     88 H88        18.2690  -28.7195  -41.9816 H         1 UNK         0.0847 
     89 H89        18.9871  -28.4732  -40.4086 H         1 UNK         0.0847 
     90 H90        21.5119  -26.5147  -42.0276 H         1 UNK         0.3040 
     91 H91        23.3667  -26.9851  -39.7730 H         1 UNK         0.1015 
     92 H92        22.0669  -24.8667  -39.7581 H         1 UNK         0.0786 
     93 H93        22.6942  -24.4412  -41.3500 H         1 UNK         0.0786 
     94 H94        23.7783  -24.5284  -39.9669 H         1 UNK         0.0786 
     95 H95        26.3236  -26.9714  -41.9329 H         1 UNK         0.3172 
     96 H96        25.3776  -26.8337  -39.1307 H         1 UNK         0.0595 
     97 H97        27.7781  -26.9423  -38.6440 H         1 UNK         0.0839 
     98 H98        27.4631  -25.6627  -39.8006 H         1 UNK         0.0839 
     99 H99        28.1566  -27.1915  -40.3418 H         1 UNK         0.0839 
    100 H100       25.2406  -29.1322  -41.4972 H         1 UNK         0.2998 
    101 H101       26.6687  -31.3510  -40.4735 H         1 UNK         0.0822 
    102 H102       26.0855  -31.0287  -42.8758 H         1 UNK         0.0787 
    103 H103       25.4706  -32.5680  -42.3034 H         1 UNK         0.0787 
    104 H104       24.3699  -31.2130  -42.5048 H         1 UNK         0.0787 
    105 H105       23.6258  -30.1624  -39.4275 H         1 UNK         0.3055 
    106 H106       21.9887  -30.8401  -38.1093 H         1 UNK         0.1106 
    107 H107       23.6891  -33.2579  -37.2882 H         1 UNK         0.0828 
    108 H108       23.7409  -31.6748  -36.5137 H         1 UNK         0.0828 
    109 H109       22.2742  -32.6389  -36.4537 H         1 UNK         0.0828 
    110 H110       21.8696  -31.2788  -40.7553 H         1 UNK         0.2931 
    111 H111       20.7800  -32.2155  -42.4119 H         1 UNK         0.0412 
    112 H112       23.2740  -33.8144  -41.0264 H         1 UNK         0.3472 
    113 H113       23.3103  -35.1798  -42.1133 H         1 UNK         0.3472 
    114 H114       18.8576  -33.7859  -42.0807 H         1 UNK         0.0970 
    115 H115       19.2522  -33.9318  -40.3990 H         1 UNK         0.0970 
    116 H116       16.7475  -32.9463  -42.3220 H         1 UNK         0.0612 
    117 H117       16.0433  -31.5320  -41.6018 H         1 UNK         0.0612 
@<TRIPOS>BOND
     1    1    2 1    
     2    1   62 1    
     3    1   63 1    
     4    1   64 1    
     5    2    3 2    
     6    2    4 am   BACKBONE|DICT|INTERRES
     7    4    5 1    
     8    4   65 1    
     9    5    6 1    
    10    5   25 1    
    11    5   66 1    
    12    6    7 1    
    13    6   67 1    
    14    6   68 1    
    15    7    8 1    
    16    8    9 1    
    17    8   69 1    
    18    8   70 1    
    19    9   10 ar   
    20    9   14 ar   
    21   10   11 ar   
    22   10   71 1    
    23   11   12 ar   
    24   11   61 1    
    25   12   13 ar   
    26   12   72 1    
    27   13   14 ar   
    28   13   15 1    
    29   14   73 1    
    30   15   16 1    
    31   15   74 1    
    32   15   75 1    
    33   16   17 1    
    34   17   18 1    
    35   17   76 1    
    36   17   77 1    
    37   18   19 1    
    38   18   27 1    
    39   18   78 1    
    40   19   20 am   BACKBONE|DICT|INTERRES
    41   19   79 1    
    42   20   21 2    
    43   20   22 1    
    44   22   23 1    
    45   22   24 1    
    46   22   80 1    
    47   23   81 1    
    48   23   82 1    
    49   23   83 1    
    50   24   25 am   BACKBONE|DICT|INTERRES
    51   24   84 1    
    52   25   26 2    
    53   27   28 2    
    54   27   29 am   BACKBONE|DICT|INTERRES
    55   29   30 1    
    56   29   85 1    
    57   30   31 1    
    58   30   32 1    
    59   30   86 1    
    60   31   87 1    
    61   31   88 1    
    62   31   89 1    
    63   32   33 2    
    64   32   34 am   BACKBONE|DICT|INTERRES
    65   34   35 1    
    66   34   90 1    
    67   35   36 1    
    68   35   37 1    
    69   35   91 1    
    70   36   92 1    
    71   36   93 1    
    72   36   94 1    
    73   37   38 2    
    74   37   39 am   BACKBONE|DICT|INTERRES
    75   39   40 1    
    76   39   95 1    
    77   40   41 1    
    78   40   42 1    
    79   40   96 1    
    80   41   97 1    
    81   41   98 1    
    82   41   99 1    
    83   42   43 2    
    84   42   44 am   BACKBONE|DICT|INTERRES
    85   44   45 1    
    86   44  100 1    
    87   45   46 1    
    88   45   47 1    
    89   45  101 1    
    90   46  102 1    
    91   46  103 1    
    92   46  104 1    
    93   47   48 2    
    94   47   49 am   BACKBONE|DICT|INTERRES
    95   49   50 1    
    96   49  105 1    
    97   50   51 1    
    98   50   52 1    
    99   50  106 1    
   100   51  107 1    
   101   51  108 1    
   102   51  109 1    
   103   52   53 2    
   104   52   54 am   BACKBONE|DICT|INTERRES
   105   54   55 1    
   106   54  110 1    
   107   55   56 1    
   108   55   59 1    
   109   55  111 1    
   110   56   57 am   BACKBONE|DICT|INTERRES
   111   56   58 2    
   112   57  112 1    
   113   57  113 1    
   114   59   60 1    
   115   59  114 1    
   116   59  115 1    
   117   60   61 1    
   118   61  116 1    
   119   61  117 1    
@<TRIPOS>SUBSTRUCTURE
     1 UNK         1 GROUP             0       ****    0 ROOT    
