@<TRIPOS>MOLECULE
3R8
117   119    1
SMALL
USER_CHARGES


@<TRIPOS>ATOM
      1 CA         13.9907  -24.6495  -43.8399 C.3       0 UNK        -0.2013 
      2 C          15.4299  -24.9746  -44.2083 C.2       0 UNK         0.4866 
      3 O          16.1802  -25.4518  -43.3599 O.2       0 UNK        -0.5176 
      4 N          15.8249  -24.6862  -45.4567 N.am      1 UNK        -0.4884 
      5 CA         17.1128  -24.9755  -46.1182 C.3       1 UNK         0.0853 
      6 C6         17.2944  -26.4923  -46.4493 C.3       10 UNK        -0.0849 
      7 S7         18.2565  -27.4986  -45.2629 S.3       10 UNK        -0.2776 
      8 C8         16.9769  -28.5167  -44.4626 C.3       10 UNK         0.0316 
      9 C9         17.5620  -29.1558  -43.2153 C.ar      10 UNK        -0.0863 
     10 C10        18.0854  -30.4501  -43.2595 C.ar      10 UNK        -0.1009 
     11 C11        18.7487  -30.9866  -42.1501 C.ar      10 UNK        -0.0712 
     12 C12        18.8714  -30.2170  -40.9890 C.ar      10 UNK        -0.0894 
     13 C13        18.3366  -28.9265  -40.9259 C.ar      10 UNK        -0.0745 
     14 C14        17.6534  -28.4160  -42.0340 C.ar      10 UNK        -0.0972 
     15 C15        18.5146  -28.0855  -39.6663 C.3       10 UNK         0.0209 
     16 S16        19.1165  -26.3929  -39.9980 S.3       10 UNK        -0.2568 
     17 C17        20.7159  -26.6589  -40.8485 C.3       10 UNK        -0.0983 
     18 CA         20.6146  -26.5820  -42.4011 C.3       3 UNK         0.0876 
     19 N          19.8601  -25.4173  -42.8893 N.am      3 UNK        -0.4424 
     20 C          20.2414  -24.1300  -42.8614 C.2       2 UNK         0.4918 
     21 O          21.3043  -23.7390  -42.3770 O.2       2 UNK        -0.4875 
     22 CA         19.2663  -23.0950  -43.4636 C.3       2 UNK         0.0481 
     23 CB         19.9991  -21.9424  -44.1824 C.3       2 UNK        -0.1831 
     24 N          18.2279  -23.6865  -44.3178 N.am      2 UNK        -0.4498 
     25 C          18.3686  -24.3019  -45.5015 C.2       1 UNK         0.5027 
     26 O          19.4383  -24.3667  -46.1087 O.2       1 UNK        -0.4969 
     27 C          21.9821  -26.6957  -43.1130 C.2       3 UNK         0.5005 
     28 O          23.0165  -26.8501  -42.4616 O.2       3 UNK        -0.5279 
     29 N          21.9609  -26.5651  -44.4496 N.am      4 UNK        -0.4463 
     30 CA         23.1336  -26.4131  -45.3206 C.3       4 UNK         0.0283 
     31 CB         22.6569  -26.1983  -46.7659 C.3       4 UNK        -0.1875 
     32 C          24.1604  -27.5592  -45.2616 C.2       4 UNK         0.4949 
     33 O          25.3467  -27.3125  -45.4785 O.2       4 UNK        -0.5039 
     34 N          23.6986  -28.7776  -44.9567 N.am      5 UNK        -0.4663 
     35 CA         24.5297  -29.9746  -44.7868 C.3       5 UNK         0.0242 
     36 CB         23.8015  -31.1676  -45.4320 C.3       5 UNK        -0.1982 
     37 C          24.8821  -30.2482  -43.3093 C.2       5 UNK         0.5017 
     38 O          25.3195  -31.3577  -42.9983 O.2       5 UNK        -0.5012 
     39 N          24.6768  -29.2491  -42.4359 N.am      6 UNK        -0.4439 
     40 CA         24.7013  -29.2866  -40.9686 C.3       6 UNK         0.0297 
     41 CB         25.9741  -29.9579  -40.4083 C.3       6 UNK        -0.2006 
     42 C          23.4159  -29.9140  -40.4053 C.2       6 UNK         0.4892 
     43 O          22.6354  -30.5161  -41.1445 O.2       6 UNK        -0.5089 
     44 N          23.2134  -29.7620  -39.0894 N.am      7 UNK        -0.4243 
     45 CA         22.0183  -30.2209  -38.3702 C.3       7 UNK         0.0196 
     46 CB         22.0858  -29.7440  -36.9110 C.3       7 UNK        -0.2007 
     47 C          21.7766  -31.7406  -38.4336 C.2       7 UNK         0.5020 
     48 O          20.6260  -32.1723  -38.3688 O.2       7 UNK        -0.5147 
     49 N          22.8566  -32.5186  -38.5736 N.am      8 UNK        -0.4734 
     50 CA         22.8142  -33.9717  -38.7456 C.3       8 UNK         0.0238 
     51 CB         24.1261  -34.5677  -38.2066 C.3       8 UNK        -0.1912 
     52 C          22.5905  -34.4114  -40.2054 C.2       8 UNK         0.5038 
     53 O          22.3007  -35.5887  -40.4199 O.2       8 UNK        -0.5046 
     54 N          22.7481  -33.4905  -41.1694 N.am      9 UNK        -0.4200 
     55 CA         22.7818  -33.7306  -42.6202 C.3       9 UNK         0.0839 
     56 C          23.9070  -34.7236  -43.0226 C.2       9 UNK         0.5513 
     57 N          25.1426  -34.2485  -43.0982 N.am      9 UNK        -0.7519 
     58 O          23.6732  -35.9035  -43.2739 O.2       9 UNK        -0.4960 
     59 C59        21.3894  -34.0808  -43.2196 C.3       10 UNK        -0.0876 
     60 S60        20.4677  -32.5666  -43.6361 S.3       10 UNK        -0.2414 
     61 C61        19.3577  -32.3830  -42.2075 C.3       10 UNK         0.0169 
     62 H62        13.4401  -24.2202  -44.6767 H         1 UNK         0.0903 
     63 H63        13.4738  -25.5548  -43.5227 H         1 UNK         0.0903 
     64 H64        13.9664  -23.9373  -43.0155 H         1 UNK         0.0903 
     65 H65        15.1493  -24.2433  -46.0655 H         1 UNK         0.3096 
     66 H66        17.0108  -24.4732  -47.0820 H         1 UNK         0.1121 
     67 H67        16.3268  -26.9640  -46.6277 H         1 UNK         0.0849 
     68 H68        17.8224  -26.5740  -47.4009 H         1 UNK         0.0849 
     69 H69        16.6235  -29.2766  -45.1611 H         1 UNK         0.0865 
     70 H70        16.1109  -27.9100  -44.1993 H         1 UNK         0.0865 
     71 H71        18.0168  -31.0258  -44.1725 H         1 UNK         0.1346 
     72 H72        19.3943  -30.6241  -40.1361 H         1 UNK         0.1412 
     73 H73        17.2511  -27.4125  -42.0001 H         1 UNK         0.1426 
     74 H74        19.1954  -28.5667  -38.9645 H         1 UNK         0.0716 
     75 H75        17.5522  -28.0172  -39.1578 H         1 UNK         0.0716 
     76 H76        21.1270  -27.6226  -40.5421 H         1 UNK         0.0695 
     77 H77        21.4092  -25.9015  -40.4784 H         1 UNK         0.0695 
     78 H78        20.0610  -27.4600  -42.7308 H         1 UNK         0.0983 
     79 H79        18.9557  -25.6262  -43.2906 H         1 UNK         0.3095 
     80 H80        18.7341  -22.6628  -42.6152 H         1 UNK         0.0454 
     81 H81        19.2955  -21.2276  -44.6086 H         1 UNK         0.0851 
     82 H82        20.6395  -22.3055  -44.9865 H         1 UNK         0.0851 
     83 H83        20.6360  -21.3922  -43.4888 H         1 UNK         0.0851 
     84 H84        17.3167  -23.7833  -43.8846 H         1 UNK         0.2976 
     85 H85        21.0617  -26.4285  -44.8921 H         1 UNK         0.3116 
     86 H86        23.6505  -25.5071  -44.9978 H         1 UNK         0.0646 
     87 H87        23.5023  -26.0550  -47.4405 H         1 UNK         0.0847 
     88 H88        22.0259  -25.3130  -46.8494 H         1 UNK         0.0847 
     89 H89        22.0870  -27.0524  -47.1339 H         1 UNK         0.0847 
     90 H90        22.7101  -28.8830  -44.7755 H         1 UNK         0.3040 
     91 H91        25.4797  -29.8450  -45.3099 H         1 UNK         0.1015 
     92 H92        23.6291  -30.9958  -46.4945 H         1 UNK         0.0786 
     93 H93        22.8345  -31.3465  -44.9633 H         1 UNK         0.0786 
     94 H94        24.3844  -32.0858  -45.3471 H         1 UNK         0.0786 
     95 H95        24.2583  -28.3997  -42.8035 H         1 UNK         0.3172 
     96 H96        24.7085  -28.2419  -40.6542 H         1 UNK         0.0595 
     97 H97        25.9552  -31.0414  -40.5302 H         1 UNK         0.0839 
     98 H98        26.0857  -29.7596  -39.3420 H         1 UNK         0.0839 
     99 H99        26.8712  -29.5809  -40.8993 H         1 UNK         0.0839 
    100 H100       23.8996  -29.2563  -38.5474 H         1 UNK         0.2998 
    101 H101       21.1618  -29.7418  -38.8437 H         1 UNK         0.0822 
    102 H102       22.9495  -30.1591  -36.3900 H         1 UNK         0.0787 
    103 H103       22.1448  -28.6570  -36.8503 H         1 UNK         0.0787 
    104 H104       21.1950  -30.0485  -36.3594 H         1 UNK         0.0787 
    105 H105       23.7642  -32.0771  -38.6087 H         1 UNK         0.3055 
    106 H106       21.9884  -34.3781  -38.1567 H         1 UNK         0.1106 
    107 H107       24.1201  -35.6563  -38.2795 H         1 UNK         0.0828 
    108 H108       24.9926  -34.2097  -38.7641 H         1 UNK         0.0828 
    109 H109       24.2742  -34.3176  -37.1559 H         1 UNK         0.0828 
    110 H110       22.9144  -32.5271  -40.9020 H         1 UNK         0.2931 
    111 H111       23.0849  -32.7759  -43.0480 H         1 UNK         0.0412 
    112 H112       25.3173  -33.2577  -42.9463 H         1 UNK         0.3472 
    113 H113       25.8988  -34.8618  -43.3576 H         1 UNK         0.3472 
    114 H114       21.4922  -34.6391  -44.1518 H         1 UNK         0.0970 
    115 H115       20.8077  -34.7203  -42.5543 H         1 UNK         0.0970 
    116 H116       18.5620  -33.1264  -42.2672 H         1 UNK         0.0612 
    117 H117       19.9203  -32.5915  -41.2958 H         1 UNK         0.0612 
@<TRIPOS>BOND
     1    1    2 1    
     2    1   62 1    
     3    1   63 1    
     4    1   64 1    
     5    2    3 2    
     6    2    4 am   BACKBONE|DICT|INTERRES
     7    4    5 1    
     8    4   65 1    
     9    5    6 1    
    10    5   25 1    
    11    5   66 1    
    12    6    7 1    
    13    6   67 1    
    14    6   68 1    
    15    7    8 1    
    16    8    9 1    
    17    8   69 1    
    18    8   70 1    
    19    9   10 ar   
    20    9   14 ar   
    21   10   11 ar   
    22   10   71 1    
    23   11   12 ar   
    24   11   61 1    
    25   12   13 ar   
    26   12   72 1    
    27   13   14 ar   
    28   13   15 1    
    29   14   73 1    
    30   15   16 1    
    31   15   74 1    
    32   15   75 1    
    33   16   17 1    
    34   17   18 1    
    35   17   76 1    
    36   17   77 1    
    37   18   19 1    
    38   18   27 1    
    39   18   78 1    
    40   19   20 am   BACKBONE|DICT|INTERRES
    41   19   79 1    
    42   20   21 2    
    43   20   22 1    
    44   22   23 1    
    45   22   24 1    
    46   22   80 1    
    47   23   81 1    
    48   23   82 1    
    49   23   83 1    
    50   24   25 am   BACKBONE|DICT|INTERRES
    51   24   84 1    
    52   25   26 2    
    53   27   28 2    
    54   27   29 am   BACKBONE|DICT|INTERRES
    55   29   30 1    
    56   29   85 1    
    57   30   31 1    
    58   30   32 1    
    59   30   86 1    
    60   31   87 1    
    61   31   88 1    
    62   31   89 1    
    63   32   33 2    
    64   32   34 am   BACKBONE|DICT|INTERRES
    65   34   35 1    
    66   34   90 1    
    67   35   36 1    
    68   35   37 1    
    69   35   91 1    
    70   36   92 1    
    71   36   93 1    
    72   36   94 1    
    73   37   38 2    
    74   37   39 am   BACKBONE|DICT|INTERRES
    75   39   40 1    
    76   39   95 1    
    77   40   41 1    
    78   40   42 1    
    79   40   96 1    
    80   41   97 1    
    81   41   98 1    
    82   41   99 1    
    83   42   43 2    
    84   42   44 am   BACKBONE|DICT|INTERRES
    85   44   45 1    
    86   44  100 1    
    87   45   46 1    
    88   45   47 1    
    89   45  101 1    
    90   46  102 1    
    91   46  103 1    
    92   46  104 1    
    93   47   48 2    
    94   47   49 am   BACKBONE|DICT|INTERRES
    95   49   50 1    
    96   49  105 1    
    97   50   51 1    
    98   50   52 1    
    99   50  106 1    
   100   51  107 1    
   101   51  108 1    
   102   51  109 1    
   103   52   53 2    
   104   52   54 am   BACKBONE|DICT|INTERRES
   105   54   55 1    
   106   54  110 1    
   107   55   56 1    
   108   55   59 1    
   109   55  111 1    
   110   56   57 am   BACKBONE|DICT|INTERRES
   111   56   58 2    
   112   57  112 1    
   113   57  113 1    
   114   59   60 1    
   115   59  114 1    
   116   59  115 1    
   117   60   61 1    
   118   61  116 1    
   119   61  117 1    
@<TRIPOS>SUBSTRUCTURE
     1 UNK         1 GROUP             0       ****    0 ROOT    
