@<TRIPOS>MOLECULE
3R8
117   119    1
SMALL
USER_CHARGES


@<TRIPOS>ATOM
      1 CA         20.1308  -24.0479  -39.9619 C.3       0 UNK        -0.2013 
      2 C          19.4566  -24.1019  -41.3243 C.2       0 UNK         0.4866 
      3 O          19.4335  -23.0967  -42.0356 O.2       0 UNK        -0.5176 
      4 N          18.8993  -25.2642  -41.6888 N.am      1 UNK        -0.4884 
      5 CA         18.2782  -25.5199  -42.9940 C.3       1 UNK         0.0853 
      6 C6         17.3770  -26.7781  -42.9417 C.3       10 UNK        -0.0849 
      7 S7         16.0461  -26.7236  -44.1867 S.3       10 UNK        -0.2776 
      8 C8         15.2010  -28.3030  -43.8646 C.3       10 UNK         0.0316 
      9 C9         16.0852  -29.4956  -44.1981 C.ar      10 UNK        -0.0863 
     10 C10        16.6237  -30.2865  -43.1784 C.ar      10 UNK        -0.1009 
     11 C11        17.4290  -31.3920  -43.4723 C.ar      10 UNK        -0.0712 
     12 C12        17.6869  -31.6976  -44.8171 C.ar      10 UNK        -0.0894 
     13 C13        17.1732  -30.8995  -45.8471 C.ar      10 UNK        -0.0745 
     14 C14        16.3632  -29.8076  -45.5305 C.ar      10 UNK        -0.0972 
     15 C15        17.4975  -31.2109  -47.3044 C.3       10 UNK         0.0209 
     16 S16        18.6650  -30.0106  -48.0372 S.3       10 UNK        -0.2568 
     17 C17        20.1404  -30.2556  -46.9893 C.3       10 UNK        -0.0983 
     18 CA         20.9955  -28.9857  -46.7078 C.3       3 UNK         0.0876 
     19 N          20.2022  -27.7536  -46.5846 N.am      3 UNK        -0.4424 
     20 C          20.7010  -26.5281  -46.7955 C.2       2 UNK         0.4918 
     21 O          21.8630  -26.3124  -47.1409 O.2       2 UNK        -0.4875 
     22 CA         19.7557  -25.3353  -46.5660 C.3       2 UNK         0.0481 
     23 CB         18.8633  -25.1171  -47.7984 C.3       2 UNK        -0.1831 
     24 N          18.9155  -25.4226  -45.3651 N.am      2 UNK        -0.4498 
     25 C          19.3432  -25.6211  -44.1098 C.2       1 UNK         0.5027 
     26 O          20.5096  -25.8998  -43.8188 O.2       1 UNK        -0.4969 
     27 C          21.8390  -29.2469  -45.4412 C.2       3 UNK         0.5005 
     28 O          22.7993  -30.0167  -45.4962 O.2       3 UNK        -0.5279 
     29 N          21.3962  -28.6853  -44.3096 N.am      4 UNK        -0.4463 
     30 CA         21.7948  -29.0845  -42.9677 C.3       4 UNK         0.0283 
     31 CB         20.5757  -28.9742  -42.0371 C.3       4 UNK        -0.1875 
     32 C          22.9526  -28.2591  -42.4120 C.2       4 UNK         0.4949 
     33 O          23.8747  -28.8419  -41.8412 O.2       4 UNK        -0.5039 
     34 N          22.8565  -26.9270  -42.5327 N.am      5 UNK        -0.4663 
     35 CA         23.7217  -25.9381  -41.8797 C.3       5 UNK         0.0242 
     36 CB         25.1019  -25.8922  -42.5751 C.3       5 UNK        -0.1982 
     37 C          23.7781  -26.1805  -40.3545 C.2       5 UNK         0.5017 
     38 O          22.7241  -26.2197  -39.7177 O.2       5 UNK        -0.5012 
     39 N          24.9826  -26.3817  -39.8066 N.am      6 UNK        -0.4439 
     40 CA         25.2159  -26.7416  -38.4053 C.3       6 UNK         0.0297 
     41 CB         26.5221  -26.0735  -37.9409 C.3       6 UNK        -0.2006 
     42 C          25.2779  -28.2652  -38.1677 C.2       6 UNK         0.4892 
     43 O          25.3855  -28.6763  -37.0117 O.2       6 UNK        -0.5089 
     44 N          25.2393  -29.0789  -39.2343 N.am      7 UNK        -0.4243 
     45 CA         25.4215  -30.5345  -39.1771 C.3       7 UNK         0.0196 
     46 CB         26.1588  -30.9924  -40.4482 C.3       7 UNK        -0.2007 
     47 C          24.1078  -31.3179  -39.0043 C.2       7 UNK         0.5020 
     48 O          24.1602  -32.5437  -38.8920 O.2       7 UNK        -0.5147 
     49 N          22.9561  -30.6262  -39.0214 N.am      8 UNK        -0.4734 
     50 CA         21.5936  -31.1751  -38.8842 C.3       8 UNK         0.0238 
     51 CB         21.3802  -31.7411  -37.4635 C.3       8 UNK        -0.1912 
     52 C          21.2158  -32.1930  -39.9857 C.2       8 UNK         0.5038 
     53 O          20.3739  -33.0589  -39.7491 O.2       8 UNK        -0.5046 
     54 N          21.8707  -32.0675  -41.1489 N.am      9 UNK        -0.4200 
     55 CA         21.8482  -32.9634  -42.3182 C.3       9 UNK         0.0839 
     56 C          22.3003  -34.4329  -42.0549 C.2       9 UNK         0.5513 
     57 N          22.9954  -34.7201  -40.9593 N.am      9 UNK        -0.7519 
     58 O          22.0703  -35.3164  -42.8766 O.2       9 UNK        -0.4960 
     59 C59        20.5979  -32.7939  -43.2374 C.3       10 UNK        -0.0876 
     60 S60        19.0588  -33.6253  -42.7080 S.3       10 UNK        -0.2414 
     61 C61        17.9766  -32.2110  -42.2962 C.3       10 UNK         0.0169 
     62 H62        19.6375  -23.3138  -39.3256 H         1 UNK         0.0903 
     63 H63        20.1039  -25.0121  -39.4544 H         1 UNK         0.0903 
     64 H64        21.1753  -23.7576  -40.0727 H         1 UNK         0.0903 
     65 H65        18.9651  -26.0563  -41.0666 H         1 UNK         0.3096 
     66 H66        17.6523  -24.6520  -43.2163 H         1 UNK         0.1121 
     67 H67        16.8925  -26.8541  -41.9665 H         1 UNK         0.0849 
     68 H68        17.9607  -27.6927  -43.0599 H         1 UNK         0.0849 
     69 H69        14.8753  -28.3353  -42.8236 H         1 UNK         0.0865 
     70 H70        14.2933  -28.3486  -44.4682 H         1 UNK         0.0865 
     71 H71        16.4127  -30.0422  -42.1460 H         1 UNK         0.1346 
     72 H72        18.3010  -32.5470  -45.0770 H         1 UNK         0.1412 
     73 H73        15.9607  -29.1903  -46.3225 H         1 UNK         0.1426 
     74 H74        16.5751  -31.2053  -47.8868 H         1 UNK         0.0716 
     75 H75        17.9126  -32.2153  -47.4020 H         1 UNK         0.0716 
     76 H76        20.7630  -31.0155  -47.4648 H         1 UNK         0.0695 
     77 H77        19.8163  -30.7051  -46.0519 H         1 UNK         0.0695 
     78 H78        21.6891  -28.8628  -47.5428 H         1 UNK         0.0983 
     79 H79        19.2271  -27.8626  -46.3456 H         1 UNK         0.3095 
     80 H80        20.3816  -24.4488  -46.4455 H         1 UNK         0.0454 
     81 H81        18.1683  -25.9446  -47.9469 H         1 UNK         0.0851 
     82 H82        19.4633  -25.0297  -48.7053 H         1 UNK         0.0851 
     83 H83        18.2803  -24.2002  -47.7108 H         1 UNK         0.0851 
     84 H84        17.9277  -25.2578  -45.5032 H         1 UNK         0.2976 
     85 H85        20.6871  -27.9677  -44.3768 H         1 UNK         0.3116 
     86 H86        22.1203  -30.1236  -42.9941 H         1 UNK         0.0646 
     87 H87        19.7571  -29.6102  -42.3715 H         1 UNK         0.0847 
     88 H88        20.2017  -27.9527  -41.9792 H         1 UNK         0.0847 
     89 H89        20.8304  -29.2711  -41.0223 H         1 UNK         0.0847 
     90 H90        22.0364  -26.5490  -43.0044 H         1 UNK         0.3040 
     91 H91        23.2431  -24.9668  -42.0158 H         1 UNK         0.1015 
     92 H92        25.6418  -26.8361  -42.4904 H         1 UNK         0.0786 
     93 H93        25.7310  -25.1038  -42.1595 H         1 UNK         0.0786 
     94 H94        24.9906  -25.6775  -43.6382 H         1 UNK         0.0786 
     95 H95        25.7929  -26.3500  -40.4091 H         1 UNK         0.3172 
     96 H96        24.4039  -26.3522  -37.7876 H         1 UNK         0.0595 
     97 H97        27.3846  -26.4367  -38.5011 H         1 UNK         0.0839 
     98 H98        26.7121  -26.2744  -36.8856 H         1 UNK         0.0839 
     99 H99        26.4772  -24.9904  -38.0572 H         1 UNK         0.0839 
    100 H100       25.0586  -28.6898  -40.1541 H         1 UNK         0.2998 
    101 H101       26.0526  -30.7844  -38.3214 H         1 UNK         0.0822 
    102 H102       27.1083  -30.4701  -40.5658 H         1 UNK         0.0787 
    103 H103       26.3820  -32.0595  -40.4091 H         1 UNK         0.0787 
    104 H104       25.5669  -30.8186  -41.3472 H         1 UNK         0.0787 
    105 H105       23.0235  -29.6244  -39.1407 H         1 UNK         0.3055 
    106 H106       20.9052  -30.3373  -38.9971 H         1 UNK         0.1106 
    107 H107       21.9754  -32.6382  -37.2904 H         1 UNK         0.0828 
    108 H108       20.3357  -32.0101  -37.3008 H         1 UNK         0.0828 
    109 H109       21.6459  -31.0098  -36.7003 H         1 UNK         0.0828 
    110 H110       22.5717  -31.3422  -41.1875 H         1 UNK         0.2931 
    111 H111       22.6750  -32.5776  -42.9160 H         1 UNK         0.0412 
    112 H112       23.3004  -35.6679  -40.8042 H         1 UNK         0.3472 
    113 H113       23.2250  -33.9997  -40.2863 H         1 UNK         0.3472 
    114 H114       20.8363  -33.1830  -44.2287 H         1 UNK         0.0970 
    115 H115       20.3966  -31.7355  -43.3981 H         1 UNK         0.0970 
    116 H116       18.5148  -31.5519  -41.6142 H         1 UNK         0.0612 
    117 H117       17.1286  -32.6028  -41.7331 H         1 UNK         0.0612 
@<TRIPOS>BOND
     1    1    2 1    
     2    1   62 1    
     3    1   63 1    
     4    1   64 1    
     5    2    3 2    
     6    2    4 am   BACKBONE|DICT|INTERRES
     7    4    5 1    
     8    4   65 1    
     9    5    6 1    
    10    5   25 1    
    11    5   66 1    
    12    6    7 1    
    13    6   67 1    
    14    6   68 1    
    15    7    8 1    
    16    8    9 1    
    17    8   69 1    
    18    8   70 1    
    19    9   10 ar   
    20    9   14 ar   
    21   10   11 ar   
    22   10   71 1    
    23   11   12 ar   
    24   11   61 1    
    25   12   13 ar   
    26   12   72 1    
    27   13   14 ar   
    28   13   15 1    
    29   14   73 1    
    30   15   16 1    
    31   15   74 1    
    32   15   75 1    
    33   16   17 1    
    34   17   18 1    
    35   17   76 1    
    36   17   77 1    
    37   18   19 1    
    38   18   27 1    
    39   18   78 1    
    40   19   20 am   BACKBONE|DICT|INTERRES
    41   19   79 1    
    42   20   21 2    
    43   20   22 1    
    44   22   23 1    
    45   22   24 1    
    46   22   80 1    
    47   23   81 1    
    48   23   82 1    
    49   23   83 1    
    50   24   25 am   BACKBONE|DICT|INTERRES
    51   24   84 1    
    52   25   26 2    
    53   27   28 2    
    54   27   29 am   BACKBONE|DICT|INTERRES
    55   29   30 1    
    56   29   85 1    
    57   30   31 1    
    58   30   32 1    
    59   30   86 1    
    60   31   87 1    
    61   31   88 1    
    62   31   89 1    
    63   32   33 2    
    64   32   34 am   BACKBONE|DICT|INTERRES
    65   34   35 1    
    66   34   90 1    
    67   35   36 1    
    68   35   37 1    
    69   35   91 1    
    70   36   92 1    
    71   36   93 1    
    72   36   94 1    
    73   37   38 2    
    74   37   39 am   BACKBONE|DICT|INTERRES
    75   39   40 1    
    76   39   95 1    
    77   40   41 1    
    78   40   42 1    
    79   40   96 1    
    80   41   97 1    
    81   41   98 1    
    82   41   99 1    
    83   42   43 2    
    84   42   44 am   BACKBONE|DICT|INTERRES
    85   44   45 1    
    86   44  100 1    
    87   45   46 1    
    88   45   47 1    
    89   45  101 1    
    90   46  102 1    
    91   46  103 1    
    92   46  104 1    
    93   47   48 2    
    94   47   49 am   BACKBONE|DICT|INTERRES
    95   49   50 1    
    96   49  105 1    
    97   50   51 1    
    98   50   52 1    
    99   50  106 1    
   100   51  107 1    
   101   51  108 1    
   102   51  109 1    
   103   52   53 2    
   104   52   54 am   BACKBONE|DICT|INTERRES
   105   54   55 1    
   106   54  110 1    
   107   55   56 1    
   108   55   59 1    
   109   55  111 1    
   110   56   57 am   BACKBONE|DICT|INTERRES
   111   56   58 2    
   112   57  112 1    
   113   57  113 1    
   114   59   60 1    
   115   59  114 1    
   116   59  115 1    
   117   60   61 1    
   118   61  116 1    
   119   61  117 1    
@<TRIPOS>SUBSTRUCTURE
     1 UNK         1 GROUP             0       ****    0 ROOT    
