@<TRIPOS>MOLECULE
3R8
117   119    1
SMALL
USER_CHARGES


@<TRIPOS>ATOM
      1 CA         16.3761  -23.5999  -41.2294 C.3       0 UNK        -0.2013 
      2 C          17.1288  -23.8150  -42.5341 C.2       0 UNK         0.4866 
      3 O          17.6625  -22.8590  -43.0982 O.2       0 UNK        -0.5176 
      4 N          17.1671  -25.0611  -43.0218 N.am      1 UNK        -0.4884 
      5 CA         17.9000  -25.4640  -44.2262 C.3       1 UNK         0.0853 
      6 C6         17.4941  -26.8828  -44.6910 C.3       10 UNK        -0.0849 
      7 S7         15.8249  -26.9344  -45.4221 S.3       10 UNK        -0.2776 
      8 C8         15.1466  -28.4915  -44.7427 C.3       10 UNK         0.0316 
      9 C9         16.0689  -29.7078  -44.8569 C.ar      10 UNK        -0.0863 
     10 C10        16.0498  -30.6677  -43.8394 C.ar      10 UNK        -0.1009 
     11 C11        16.8910  -31.7837  -43.8793 C.ar      10 UNK        -0.0712 
     12 C12        17.7583  -31.9355  -44.9686 C.ar      10 UNK        -0.0894 
     13 C13        17.8129  -30.9730  -45.9794 C.ar      10 UNK        -0.0745 
     14 C14        16.9422  -29.8814  -45.9386 C.ar      10 UNK        -0.0972 
     15 C15        18.8656  -31.0850  -47.0747 C.3       10 UNK         0.0209 
     16 S16        20.2418  -29.9014  -46.8424 S.3       10 UNK        -0.2568 
     17 C17        20.6865  -30.1317  -45.0822 C.3       10 UNK        -0.0983 
     18 CA         21.7321  -29.1187  -44.5423 C.3       3 UNK         0.0876 
     19 N          21.4527  -27.7442  -44.9711 N.am      3 UNK        -0.4424 
     20 C          22.1989  -26.6648  -44.6956 C.2       2 UNK         0.4918 
     21 O          23.2587  -26.7020  -44.0743 O.2       2 UNK        -0.4875 
     22 CA         21.6372  -25.3027  -45.1423 C.3       2 UNK         0.0481 
     23 CB         22.1294  -24.9596  -46.5565 C.3       2 UNK        -0.1831 
     24 N          20.1722  -25.2342  -45.0994 N.am      2 UNK        -0.4498 
     25 C          19.4241  -25.4236  -44.0016 C.2       1 UNK         0.5027 
     26 O          19.8936  -25.6543  -42.8832 O.2       1 UNK        -0.4969 
     27 C          21.8022  -29.2244  -43.0041 C.2       3 UNK         0.5005 
     28 O          22.7403  -29.8116  -42.4649 O.2       3 UNK        -0.5279 
     29 N          20.8085  -28.6277  -42.3295 N.am      4 UNK        -0.4463 
     30 CA         20.7057  -28.5751  -40.8729 C.3       4 UNK         0.0283 
     31 CB         19.2768  -28.1829  -40.4658 C.3       4 UNK        -0.1875 
     32 C          21.7409  -27.6249  -40.2556 C.2       4 UNK         0.4949 
     33 O          22.3284  -27.9659  -39.2304 O.2       4 UNK        -0.5039 
     34 N          21.9872  -26.4784  -40.9079 N.am      5 UNK        -0.4663 
     35 CA         23.0150  -25.5060  -40.5144 C.3       5 UNK         0.0242 
     36 CB         22.8931  -24.2443  -41.3824 C.3       5 UNK        -0.1982 
     37 C          24.4435  -26.0786  -40.5810 C.2       5 UNK         0.5017 
     38 O          25.2566  -25.7832  -39.7052 O.2       5 UNK        -0.5012 
     39 N          24.7054  -26.9197  -41.5909 N.am      6 UNK        -0.4439 
     40 CA         25.9427  -27.6865  -41.7605 C.3       6 UNK         0.0297 
     41 CB         26.0495  -28.1308  -43.2296 C.3       6 UNK        -0.2006 
     42 C          26.0526  -28.9097  -40.8273 C.2       6 UNK         0.4892 
     43 O          27.1083  -29.5439  -40.8118 O.2       6 UNK        -0.5089 
     44 N          24.9754  -29.2343  -40.0942 N.am      7 UNK        -0.4243 
     45 CA         24.8064  -30.3977  -39.2143 C.3       7 UNK         0.0196 
     46 CB         25.7872  -30.3469  -38.0232 C.3       7 UNK        -0.2007 
     47 C          24.8381  -31.7434  -39.9670 C.2       7 UNK         0.5020 
     48 O          25.2085  -32.7642  -39.3854 O.2       7 UNK        -0.5147 
     49 N          24.4212  -31.7317  -41.2397 N.am      8 UNK        -0.4734 
     50 CA         24.2571  -32.9186  -42.0828 C.3       8 UNK         0.0238 
     51 CB         24.5830  -32.5397  -43.5379 C.3       8 UNK        -0.1912 
     52 C          22.8370  -33.5052  -41.9815 C.2       8 UNK         0.5038 
     53 O          22.6016  -34.5976  -42.4992 O.2       8 UNK        -0.5046 
     54 N          21.9219  -32.7773  -41.3323 N.am      9 UNK        -0.4200 
     55 CA         20.5227  -33.1417  -41.1023 C.3       9 UNK         0.0839 
     56 C          20.0107  -32.5467  -39.7629 C.2       9 UNK         0.5513 
     57 N          18.7783  -32.8474  -39.3810 N.am      9 UNK        -0.7519 
     58 O          20.7164  -31.8209  -39.0645 O.2       9 UNK        -0.4960 
     59 C59        19.6390  -32.7690  -42.3244 C.3       10 UNK        -0.0876 
     60 S60        18.2501  -33.9265  -42.5764 S.3       10 UNK        -0.2414 
     61 C61        16.8320  -32.7819  -42.7188 C.3       10 UNK         0.0169 
     62 H62        15.5678  -22.8839  -41.3759 H         1 UNK         0.0903 
     63 H63        15.9444  -24.5257  -40.8495 H         1 UNK         0.0903 
     64 H64        17.0495  -23.2035  -40.4699 H         1 UNK         0.0903 
     65 H65        16.7147  -25.8072  -42.5143 H         1 UNK         0.3096 
     66 H66        17.6623  -24.7495  -45.0181 H         1 UNK         0.1121 
     67 H67        17.5633  -27.5879  -43.8600 H         1 UNK         0.0849 
     68 H68        18.1740  -27.2569  -45.4593 H         1 UNK         0.0849 
     69 H69        14.8911  -28.3139  -43.6967 H         1 UNK         0.0865 
     70 H70        14.2090  -28.7161  -45.2525 H         1 UNK         0.0865 
     71 H71        15.3788  -30.5418  -43.0001 H         1 UNK         0.1346 
     72 H72        18.4259  -32.7829  -45.0228 H         1 UNK         0.1412 
     73 H73        16.9823  -29.1451  -46.7293 H         1 UNK         0.1426 
     74 H74        18.4025  -30.9059  -48.0460 H         1 UNK         0.0716 
     75 H75        19.2744  -32.0959  -47.1134 H         1 UNK         0.0716 
     76 H76        21.0468  -31.1533  -44.9485 H         1 UNK         0.0695 
     77 H77        19.7685  -30.0514  -44.4987 H         1 UNK         0.0695 
     78 H78        22.7134  -29.3881  -44.9384 H         1 UNK         0.0983 
     79 H79        20.6249  -27.6245  -45.5348 H         1 UNK         0.3095 
     80 H80        22.0190  -24.5435  -44.4583 H         1 UNK         0.0454 
     81 H81        21.8152  -23.9596  -46.8556 H         1 UNK         0.0851 
     82 H82        21.7571  -25.6663  -47.2993 H         1 UNK         0.0851 
     83 H83        23.2191  -24.9812  -46.6049 H         1 UNK         0.0851 
     84 H84        19.7082  -25.0556  -45.9792 H         1 UNK         0.2976 
     85 H85        20.1179  -28.1060  -42.8490 H         1 UNK         0.3116 
     86 H86        20.9044  -29.5755  -40.4856 H         1 UNK         0.0646 
     87 H87        18.5450  -28.8909  -40.8554 H         1 UNK         0.0847 
     88 H88        19.0083  -27.1885  -40.8240 H         1 UNK         0.0847 
     89 H89        19.1724  -28.1766  -39.3800 H         1 UNK         0.0847 
     90 H90        21.4178  -26.2493  -41.7173 H         1 UNK         0.3040 
     91 H91        22.8210  -25.2265  -39.4764 H         1 UNK         0.1015 
     92 H92        23.5703  -23.4651  -41.0304 H         1 UNK         0.0786 
     93 H93        21.8828  -23.8352  -41.3544 H         1 UNK         0.0786 
     94 H94        23.1463  -24.4463  -42.4225 H         1 UNK         0.0786 
     95 H95        24.0006  -27.0366  -42.3145 H         1 UNK         0.3172 
     96 H96        26.7877  -27.0313  -41.5396 H         1 UNK         0.0595 
     97 H97        25.2286  -28.7925  -43.5096 H         1 UNK         0.0839 
     98 H98        26.9799  -28.6701  -43.4122 H         1 UNK         0.0839 
     99 H99        26.0349  -27.2754  -43.9053 H         1 UNK         0.0839 
    100 H100       24.1587  -28.6397  -40.1709 H         1 UNK         0.2998 
    101 H101       23.7977  -30.3149  -38.8066 H         1 UNK         0.0822 
    102 H102       25.7364  -29.3869  -37.5094 H         1 UNK         0.0787 
    103 H103       25.5507  -31.1183  -37.2894 H         1 UNK         0.0787 
    104 H104       26.8186  -30.5060  -38.3386 H         1 UNK         0.0787 
    105 H105       24.0696  -30.8604  -41.6332 H         1 UNK         0.3055 
    106 H106       24.9560  -33.6958  -41.7652 H         1 UNK         0.1106 
    107 H107       23.8883  -31.7957  -43.9288 H         1 UNK         0.0828 
    108 H108       24.5264  -33.4119  -44.1905 H         1 UNK         0.0828 
    109 H109       25.5914  -32.1351  -43.6254 H         1 UNK         0.0828 
    110 H110       22.2100  -31.9074  -40.9055 H         1 UNK         0.2931 
    111 H111       20.5045  -34.2247  -40.9639 H         1 UNK         0.0412 
    112 H112       18.4263  -32.4763  -38.5124 H         1 UNK         0.3472 
    113 H113       18.1971  -33.4437  -39.9502 H         1 UNK         0.3472 
    114 H114       19.2827  -31.7393  -42.2523 H         1 UNK         0.0970 
    115 H115       20.2292  -32.8067  -43.2409 H         1 UNK         0.0970 
    116 H116       15.9235  -33.3763  -42.8227 H         1 UNK         0.0612 
    117 H117       16.7405  -32.2384  -41.7769 H         1 UNK         0.0612 
@<TRIPOS>BOND
     1    1    2 1    
     2    1   62 1    
     3    1   63 1    
     4    1   64 1    
     5    2    3 2    
     6    2    4 am   BACKBONE|DICT|INTERRES
     7    4    5 1    
     8    4   65 1    
     9    5    6 1    
    10    5   25 1    
    11    5   66 1    
    12    6    7 1    
    13    6   67 1    
    14    6   68 1    
    15    7    8 1    
    16    8    9 1    
    17    8   69 1    
    18    8   70 1    
    19    9   10 ar   
    20    9   14 ar   
    21   10   11 ar   
    22   10   71 1    
    23   11   12 ar   
    24   11   61 1    
    25   12   13 ar   
    26   12   72 1    
    27   13   14 ar   
    28   13   15 1    
    29   14   73 1    
    30   15   16 1    
    31   15   74 1    
    32   15   75 1    
    33   16   17 1    
    34   17   18 1    
    35   17   76 1    
    36   17   77 1    
    37   18   19 1    
    38   18   27 1    
    39   18   78 1    
    40   19   20 am   BACKBONE|DICT|INTERRES
    41   19   79 1    
    42   20   21 2    
    43   20   22 1    
    44   22   23 1    
    45   22   24 1    
    46   22   80 1    
    47   23   81 1    
    48   23   82 1    
    49   23   83 1    
    50   24   25 am   BACKBONE|DICT|INTERRES
    51   24   84 1    
    52   25   26 2    
    53   27   28 2    
    54   27   29 am   BACKBONE|DICT|INTERRES
    55   29   30 1    
    56   29   85 1    
    57   30   31 1    
    58   30   32 1    
    59   30   86 1    
    60   31   87 1    
    61   31   88 1    
    62   31   89 1    
    63   32   33 2    
    64   32   34 am   BACKBONE|DICT|INTERRES
    65   34   35 1    
    66   34   90 1    
    67   35   36 1    
    68   35   37 1    
    69   35   91 1    
    70   36   92 1    
    71   36   93 1    
    72   36   94 1    
    73   37   38 2    
    74   37   39 am   BACKBONE|DICT|INTERRES
    75   39   40 1    
    76   39   95 1    
    77   40   41 1    
    78   40   42 1    
    79   40   96 1    
    80   41   97 1    
    81   41   98 1    
    82   41   99 1    
    83   42   43 2    
    84   42   44 am   BACKBONE|DICT|INTERRES
    85   44   45 1    
    86   44  100 1    
    87   45   46 1    
    88   45   47 1    
    89   45  101 1    
    90   46  102 1    
    91   46  103 1    
    92   46  104 1    
    93   47   48 2    
    94   47   49 am   BACKBONE|DICT|INTERRES
    95   49   50 1    
    96   49  105 1    
    97   50   51 1    
    98   50   52 1    
    99   50  106 1    
   100   51  107 1    
   101   51  108 1    
   102   51  109 1    
   103   52   53 2    
   104   52   54 am   BACKBONE|DICT|INTERRES
   105   54   55 1    
   106   54  110 1    
   107   55   56 1    
   108   55   59 1    
   109   55  111 1    
   110   56   57 am   BACKBONE|DICT|INTERRES
   111   56   58 2    
   112   57  112 1    
   113   57  113 1    
   114   59   60 1    
   115   59  114 1    
   116   59  115 1    
   117   60   61 1    
   118   61  116 1    
   119   61  117 1    
@<TRIPOS>SUBSTRUCTURE
     1 UNK         1 GROUP             0       ****    0 ROOT    
