@<TRIPOS>MOLECULE
3R8
117   119    1
SMALL
USER_CHARGES


@<TRIPOS>ATOM
      1 CA         17.1559  -22.7983  -43.6149 C.3       0 UNK        -0.2013 
      2 C          17.3336  -24.2884  -43.8590 C.2       0 UNK         0.4866 
      3 O          17.7837  -25.0050  -42.9647 O.2       0 UNK        -0.5176 
      4 N          17.0160  -24.7614  -45.0749 N.am      1 UNK        -0.4884 
      5 CA         17.0352  -26.1748  -45.5010 C.3       1 UNK         0.0853 
      6 C6         16.0267  -27.0272  -44.6717 C.3       10 UNK        -0.0849 
      7 S7         15.2674  -28.3944  -45.6128 S.3       10 UNK        -0.2776 
      8 C8         15.0560  -29.6694  -44.3209 C.3       10 UNK         0.0316 
      9 C9         16.3834  -30.2019  -43.7932 C.ar      10 UNK        -0.0863 
     10 C10        17.2731  -30.8460  -44.6590 C.ar      10 UNK        -0.1009 
     11 C11        18.5029  -31.3150  -44.1921 C.ar      10 UNK        -0.0712 
     12 C12        18.8394  -31.1344  -42.8488 C.ar      10 UNK        -0.0894 
     13 C13        17.9581  -30.5089  -41.9636 C.ar      10 UNK        -0.0745 
     14 C14        16.7204  -30.0593  -42.4413 C.ar      10 UNK        -0.0972 
     15 C15        18.3662  -30.3653  -40.4973 C.3       10 UNK         0.0209 
     16 S16        17.9413  -28.7717  -39.7092 S.3       10 UNK        -0.2568 
     17 C17        18.4166  -27.5102  -40.9373 C.3       10 UNK        -0.0983 
     18 CA         19.8838  -27.5600  -41.4372 C.3       3 UNK         0.0876 
     19 N          19.9719  -26.9689  -42.7742 N.am      3 UNK        -0.4424 
     20 C          21.0149  -27.0565  -43.6118 C.2       2 UNK         0.4918 
     21 O          22.0740  -27.6078  -43.3146 O.2       2 UNK        -0.4875 
     22 CA         20.8811  -26.3473  -44.9794 C.3       2 UNK         0.0481 
     23 CB         21.5638  -27.1244  -46.1235 C.3       2 UNK        -0.1831 
     24 N          19.4962  -25.9795  -45.3128 N.am      2 UNK        -0.4498 
     25 C          18.4562  -26.8009  -45.5407 C.2       1 UNK         0.5027 
     26 O          18.5833  -28.0052  -45.7465 O.2       1 UNK        -0.4969 
     27 C          20.8455  -26.8725  -40.4487 C.2       3 UNK         0.5005 
     28 O          21.4448  -27.5376  -39.6031 O.2       3 UNK        -0.5279 
     29 N          20.9975  -25.5485  -40.6006 N.am      4 UNK        -0.4463 
     30 CA         21.9509  -24.7280  -39.8528 C.3       4 UNK         0.0283 
     31 CB         21.5184  -23.2550  -39.9369 C.3       4 UNK        -0.1875 
     32 C          23.3991  -24.8900  -40.3494 C.2       4 UNK         0.4949 
     33 O          24.3245  -24.6141  -39.5860 O.2       4 UNK        -0.5039 
     34 N          23.5764  -25.3108  -41.6110 N.am      5 UNK        -0.4663 
     35 CA         24.8859  -25.5245  -42.2298 C.3       5 UNK         0.0242 
     36 CB         24.7631  -25.4729  -43.7618 C.3       5 UNK        -0.1982 
     37 C          25.5329  -26.8390  -41.7697 C.2       5 UNK         0.5017 
     38 O          26.7321  -26.8447  -41.4876 O.2       5 UNK        -0.5012 
     39 N          24.7400  -27.9152  -41.6789 N.am      6 UNK        -0.4439 
     40 CA         25.1749  -29.2160  -41.1784 C.3       6 UNK         0.0297 
     41 CB         25.9393  -29.9849  -42.2716 C.3       6 UNK        -0.2006 
     42 C          23.9639  -30.0164  -40.6932 C.2       6 UNK         0.4892 
     43 O          22.9293  -30.0300  -41.3646 O.2       6 UNK        -0.5089 
     44 N          24.1341  -30.7118  -39.5602 N.am      7 UNK        -0.4243 
     45 CA         23.1515  -31.6378  -38.9943 C.3       7 UNK         0.0196 
     46 CB         23.6435  -32.1419  -37.6281 C.3       7 UNK        -0.2007 
     47 C          22.9044  -32.8097  -39.9557 C.2       7 UNK         0.5020 
     48 O          23.8637  -33.4648  -40.3710 O.2       7 UNK        -0.5147 
     49 N          21.6344  -33.0008  -40.3403 N.am      8 UNK        -0.4734 
     50 CA         21.1587  -33.9497  -41.3598 C.3       8 UNK         0.0238 
     51 CB         21.3039  -35.4010  -40.8533 C.3       8 UNK        -0.1912 
     52 C          21.8015  -33.7489  -42.7523 C.2       8 UNK         0.5038 
     53 O          21.8204  -34.6899  -43.5473 O.2       8 UNK        -0.5046 
     54 N          22.3164  -32.5378  -43.0199 N.am      9 UNK        -0.4200 
     55 CA         23.1011  -32.1682  -44.2092 C.3       9 UNK         0.0839 
     56 C          24.4699  -32.9092  -44.3193 C.2       9 UNK         0.5513 
     57 N          25.0103  -33.4662  -43.2399 N.am      9 UNK        -0.7519 
     58 O          25.0722  -32.9544  -45.3889 O.2       9 UNK        -0.4960 
     59 C59        22.2721  -32.1911  -45.5271 C.3       10 UNK        -0.0876 
     60 S60        20.9113  -30.9753  -45.4949 S.3       10 UNK        -0.2414 
     61 C61        19.4705  -32.0228  -45.1277 C.3       10 UNK         0.0169 
     62 H62        18.1098  -22.3456  -43.3461 H         1 UNK         0.0903 
     63 H63        16.7701  -22.2828  -44.4940 H         1 UNK         0.0903 
     64 H64        16.4590  -22.6358  -42.7933 H         1 UNK         0.0903 
     65 H65        16.6818  -24.1129  -45.7760 H         1 UNK         0.3096 
     66 H66        16.6964  -26.1638  -46.5384 H         1 UNK         0.1121 
     67 H67        15.1996  -26.4032  -44.3294 H         1 UNK         0.0849 
     68 H68        16.4962  -27.4060  -43.7635 H         1 UNK         0.0849 
     69 H69        14.4500  -29.2583  -43.5119 H         1 UNK         0.0865 
     70 H70        14.4848  -30.5002  -44.7373 H         1 UNK         0.0865 
     71 H71        17.0136  -30.9626  -45.7023 H         1 UNK         0.1346 
     72 H72        19.7989  -31.4797  -42.4959 H         1 UNK         0.1412 
     73 H73        16.0290  -29.5797  -41.7621 H         1 UNK         0.1426 
     74 H74        17.8912  -31.1658  -39.9288 H         1 UNK         0.0716 
     75 H75        19.4411  -30.5140  -40.3855 H         1 UNK         0.0716 
     76 H76        18.1758  -26.5267  -40.5283 H         1 UNK         0.0695 
     77 H77        17.7347  -27.6281  -41.7785 H         1 UNK         0.0695 
     78 H78        20.2071  -28.5974  -41.5364 H         1 UNK         0.0983 
     79 H79        19.1621  -26.4291  -43.0643 H         1 UNK         0.3095 
     80 H80        21.4162  -25.4031  -44.8706 H         1 UNK         0.0454 
     81 H81        21.1259  -28.1120  -46.2631 H         1 UNK         0.0851 
     82 H82        22.6247  -27.2723  -45.9196 H         1 UNK         0.0851 
     83 H83        21.4881  -26.5875  -47.0686 H         1 UNK         0.0851 
     84 H84        19.2687  -25.0029  -45.1857 H         1 UNK         0.2976 
     85 H85        20.4429  -25.0820  -41.3048 H         1 UNK         0.3116 
     86 H86        21.9244  -25.0321  -38.8040 H         1 UNK         0.0646 
     87 H87        20.5166  -23.1107  -39.5319 H         1 UNK         0.0847 
     88 H88        22.1922  -22.6179  -39.3619 H         1 UNK         0.0847 
     89 H89        21.5228  -22.8882  -40.9642 H         1 UNK         0.0847 
     90 H90        22.7660  -25.5619  -42.1566 H         1 UNK         0.3040 
     91 H91        25.5456  -24.7089  -41.9237 H         1 UNK         0.1015 
     92 H92        24.1677  -26.2964  -44.1539 H         1 UNK         0.0786 
     93 H93        25.7468  -25.5381  -44.2289 H         1 UNK         0.0786 
     94 H94        24.3089  -24.5395  -44.0944 H         1 UNK         0.0786 
     95 H95        23.7613  -27.8554  -41.9481 H         1 UNK         0.3172 
     96 H96        25.8404  -29.0583  -40.3269 H         1 UNK         0.0595 
     97 H97        25.3507  -30.0728  -43.1843 H         1 UNK         0.0839 
     98 H98        26.1890  -30.9946  -41.9427 H         1 UNK         0.0839 
     99 H99        26.8755  -29.4886  -42.5271 H         1 UNK         0.0839 
    100 H100       25.0307  -30.6732  -39.0977 H         1 UNK         0.2998 
    101 H101       22.2205  -31.0859  -38.8454 H         1 UNK         0.0822 
    102 H102       22.9173  -32.8214  -37.1799 H         1 UNK         0.0787 
    103 H103       24.5869  -32.6833  -37.7127 H         1 UNK         0.0787 
    104 H104       23.7896  -31.3179  -36.9292 H         1 UNK         0.0787 
    105 H105       20.9256  -32.4027  -39.9388 H         1 UNK         0.3055 
    106 H106       20.0931  -33.7556  -41.4933 H         1 UNK         0.1106 
    107 H107       20.8239  -36.1053  -41.5341 H         1 UNK         0.0828 
    108 H108       22.3500  -35.6967  -40.7666 H         1 UNK         0.0828 
    109 H109       20.8367  -35.5299  -39.8771 H         1 UNK         0.0828 
    110 H110       22.2852  -31.8227  -42.3020 H         1 UNK         0.2931 
    111 H111       23.3817  -31.1286  -44.0390 H         1 UNK         0.0412 
    112 H112       24.5373  -33.4387  -42.3435 H         1 UNK         0.3472 
    113 H113       25.8987  -33.9340  -43.3225 H         1 UNK         0.3472 
    114 H114       21.8923  -33.1906  -45.7422 H         1 UNK         0.0970 
    115 H115       22.9026  -31.9257  -46.3773 H         1 UNK         0.0970 
    116 H116       19.7828  -32.9595  -44.6674 H         1 UNK         0.0612 
    117 H117       18.9820  -32.2913  -46.0653 H         1 UNK         0.0612 
@<TRIPOS>BOND
     1    1    2 1    
     2    1   62 1    
     3    1   63 1    
     4    1   64 1    
     5    2    3 2    
     6    2    4 am   BACKBONE|DICT|INTERRES
     7    4    5 1    
     8    4   65 1    
     9    5    6 1    
    10    5   25 1    
    11    5   66 1    
    12    6    7 1    
    13    6   67 1    
    14    6   68 1    
    15    7    8 1    
    16    8    9 1    
    17    8   69 1    
    18    8   70 1    
    19    9   10 ar   
    20    9   14 ar   
    21   10   11 ar   
    22   10   71 1    
    23   11   12 ar   
    24   11   61 1    
    25   12   13 ar   
    26   12   72 1    
    27   13   14 ar   
    28   13   15 1    
    29   14   73 1    
    30   15   16 1    
    31   15   74 1    
    32   15   75 1    
    33   16   17 1    
    34   17   18 1    
    35   17   76 1    
    36   17   77 1    
    37   18   19 1    
    38   18   27 1    
    39   18   78 1    
    40   19   20 am   BACKBONE|DICT|INTERRES
    41   19   79 1    
    42   20   21 2    
    43   20   22 1    
    44   22   23 1    
    45   22   24 1    
    46   22   80 1    
    47   23   81 1    
    48   23   82 1    
    49   23   83 1    
    50   24   25 am   BACKBONE|DICT|INTERRES
    51   24   84 1    
    52   25   26 2    
    53   27   28 2    
    54   27   29 am   BACKBONE|DICT|INTERRES
    55   29   30 1    
    56   29   85 1    
    57   30   31 1    
    58   30   32 1    
    59   30   86 1    
    60   31   87 1    
    61   31   88 1    
    62   31   89 1    
    63   32   33 2    
    64   32   34 am   BACKBONE|DICT|INTERRES
    65   34   35 1    
    66   34   90 1    
    67   35   36 1    
    68   35   37 1    
    69   35   91 1    
    70   36   92 1    
    71   36   93 1    
    72   36   94 1    
    73   37   38 2    
    74   37   39 am   BACKBONE|DICT|INTERRES
    75   39   40 1    
    76   39   95 1    
    77   40   41 1    
    78   40   42 1    
    79   40   96 1    
    80   41   97 1    
    81   41   98 1    
    82   41   99 1    
    83   42   43 2    
    84   42   44 am   BACKBONE|DICT|INTERRES
    85   44   45 1    
    86   44  100 1    
    87   45   46 1    
    88   45   47 1    
    89   45  101 1    
    90   46  102 1    
    91   46  103 1    
    92   46  104 1    
    93   47   48 2    
    94   47   49 am   BACKBONE|DICT|INTERRES
    95   49   50 1    
    96   49  105 1    
    97   50   51 1    
    98   50   52 1    
    99   50  106 1    
   100   51  107 1    
   101   51  108 1    
   102   51  109 1    
   103   52   53 2    
   104   52   54 am   BACKBONE|DICT|INTERRES
   105   54   55 1    
   106   54  110 1    
   107   55   56 1    
   108   55   59 1    
   109   55  111 1    
   110   56   57 am   BACKBONE|DICT|INTERRES
   111   56   58 2    
   112   57  112 1    
   113   57  113 1    
   114   59   60 1    
   115   59  114 1    
   116   59  115 1    
   117   60   61 1    
   118   61  116 1    
   119   61  117 1    
@<TRIPOS>SUBSTRUCTURE
     1 UNK         1 GROUP             0       ****    0 ROOT    
