@<TRIPOS>MOLECULE
3R8
117   119    1
SMALL
USER_CHARGES


@<TRIPOS>ATOM
      1 CA         21.5569  -23.3871  -40.2807 C.3       0 UNK        -0.2013 
      2 C          20.2393  -23.9337  -40.8109 C.2       0 UNK         0.4866 
      3 O          19.2404  -23.2131  -40.8276 O.2       0 UNK        -0.5176 
      4 N          20.2287  -25.2031  -41.2345 N.am      1 UNK        -0.4884 
      5 CA         19.0796  -25.8824  -41.8426 C.3       1 UNK         0.0853 
      6 C6         19.2125  -27.4202  -41.6939 C.3       10 UNK        -0.0849 
      7 S7         17.5852  -28.2409  -41.6221 S.3       10 UNK        -0.2776 
      8 C8         18.0727  -29.9960  -41.5891 C.3       10 UNK         0.0316 
      9 C9         18.8023  -30.4484  -42.8503 C.ar      10 UNK        -0.0863 
     10 C10        19.9704  -31.2054  -42.7406 C.ar      10 UNK        -0.1009 
     11 C11        20.6323  -31.6708  -43.8785 C.ar      10 UNK        -0.0712 
     12 C12        20.1301  -31.3502  -45.1426 C.ar      10 UNK        -0.0894 
     13 C13        18.9856  -30.5534  -45.2731 C.ar      10 UNK        -0.0745 
     14 C14        18.3132  -30.1322  -44.1218 C.ar      10 UNK        -0.0972 
     15 C15        18.4474  -30.1360  -46.6395 C.3       10 UNK         0.0209 
     16 S16        19.7160  -29.7194  -47.8889 S.3       10 UNK        -0.2568 
     17 C17        20.9030  -28.6420  -47.0120 C.3       10 UNK        -0.0983 
     18 CA         20.5397  -27.1360  -47.0641 C.3       3 UNK         0.0876 
     19 N          19.3805  -26.8512  -46.2085 N.am      3 UNK        -0.4424 
     20 C          18.4810  -25.8838  -46.4237 C.2       2 UNK         0.4918 
     21 O          18.4900  -25.1481  -47.4104 O.2       2 UNK        -0.4875 
     22 CA         17.4066  -25.6754  -45.3366 C.3       2 UNK         0.0481 
     23 CB         16.1397  -26.4771  -45.6743 C.3       2 UNK        -0.1831 
     24 N          17.8323  -25.9975  -43.9658 N.am      2 UNK        -0.4498 
     25 C          18.8633  -25.4421  -43.3119 C.2       1 UNK         0.5027 
     26 O          19.6310  -24.6362  -43.8413 O.2       1 UNK        -0.4969 
     27 C          21.7744  -26.2773  -46.6893 C.2       3 UNK         0.5005 
     28 O          22.8337  -26.4741  -47.2865 O.2       3 UNK        -0.5279 
     29 N          21.6509  -25.3854  -45.6909 N.am      4 UNK        -0.4463 
     30 CA         22.7241  -24.6491  -45.0048 C.3       4 UNK         0.0283 
     31 CB         23.5295  -23.7547  -45.9716 C.3       4 UNK        -0.1875 
     32 C          23.6167  -25.5619  -44.1382 C.2       4 UNK         0.4949 
     33 O          24.7474  -25.1912  -43.8199 O.2       4 UNK        -0.5039 
     34 N          23.0897  -26.7348  -43.7595 N.am      5 UNK        -0.4663 
     35 CA         23.7336  -27.7019  -42.8738 C.3       5 UNK         0.0242 
     36 CB         23.0516  -29.0679  -43.0491 C.3       5 UNK        -0.1982 
     37 C          23.6416  -27.2384  -41.4131 C.2       5 UNK         0.5017 
     38 O          22.5953  -26.7301  -41.0040 O.2       5 UNK        -0.5012 
     39 N          24.7232  -27.4430  -40.6528 N.am      6 UNK        -0.4439 
     40 CA         24.8332  -27.0560  -39.2421 C.3       6 UNK         0.0297 
     41 CB         26.3185  -26.8399  -38.9043 C.3       6 UNK        -0.2006 
     42 C          24.2029  -28.0689  -38.2660 C.2       6 UNK         0.4892 
     43 O          24.0895  -27.7592  -37.0791 O.2       6 UNK        -0.5089 
     44 N          23.8251  -29.2535  -38.7585 N.am      7 UNK        -0.4243 
     45 CA         23.2225  -30.3430  -37.9966 C.3       7 UNK         0.0196 
     46 CB         24.3308  -31.2587  -37.4450 C.3       7 UNK        -0.2007 
     47 C          22.2636  -31.1163  -38.9086 C.2       7 UNK         0.5020 
     48 O          22.3123  -30.9515  -40.1300 O.2       7 UNK        -0.5147 
     49 N          21.4097  -31.9459  -38.2967 N.am      8 UNK        -0.4734 
     50 CA         20.4329  -32.7945  -38.9825 C.3       8 UNK         0.0238 
     51 CB         19.4919  -33.4241  -37.9425 C.3       8 UNK        -0.1912 
     52 C          21.1007  -33.8904  -39.8326 C.2       8 UNK         0.5038 
     53 O          22.0754  -34.5006  -39.3862 O.2       8 UNK        -0.5046 
     54 N          20.5366  -34.1345  -41.0199 N.am      9 UNK        -0.4200 
     55 CA         20.9124  -35.2292  -41.9231 C.3       9 UNK         0.0839 
     56 C          20.3480  -36.5877  -41.4238 C.2       9 UNK         0.5513 
     57 N          21.0268  -37.6857  -41.7256 N.am      9 UNK        -0.7519 
     58 O          19.2877  -36.6600  -40.8049 O.2       9 UNK        -0.4960 
     59 C59        20.4578  -34.9203  -43.3792 C.3       10 UNK        -0.0876 
     60 S60        21.7758  -34.1719  -44.3956 S.3       10 UNK        -0.2414 
     61 C61        21.9138  -32.4801  -43.7339 C.3       10 UNK         0.0169 
     62 H62        21.8670  -22.5234  -40.8682 H         1 UNK         0.0903 
     63 H63        21.4431  -23.0724  -39.2438 H         1 UNK         0.0903 
     64 H64        22.3542  -24.1287  -40.3241 H         1 UNK         0.0903 
     65 H65        21.0904  -25.7472  -41.1883 H         1 UNK         0.3096 
     66 H66        18.1948  -25.5582  -41.2893 H         1 UNK         0.1121 
     67 H67        19.8211  -27.8479  -42.4928 H         1 UNK         0.0849 
     68 H68        19.7302  -27.6676  -40.7649 H         1 UNK         0.0849 
     69 H69        18.6860  -30.1657  -40.7028 H         1 UNK         0.0865 
     70 H70        17.1776  -30.6071  -41.4663 H         1 UNK         0.0865 
     71 H71        20.3753  -31.4275  -41.7657 H         1 UNK         0.1346 
     72 H72        20.6496  -31.6995  -46.0243 H         1 UNK         0.1412 
     73 H73        17.4092  -29.5456  -44.2125 H         1 UNK         0.1426 
     74 H74        17.7875  -29.2740  -46.5387 H         1 UNK         0.0716 
     75 H75        17.8306  -30.9460  -47.0304 H         1 UNK         0.0716 
     76 H76        21.8611  -28.8264  -47.5017 H         1 UNK         0.0695 
     77 H77        21.0443  -28.9659  -45.9812 H         1 UNK         0.0695 
     78 H78        20.2944  -26.8802  -48.0973 H         1 UNK         0.0983 
     79 H79        19.2836  -27.4204  -45.3814 H         1 UNK         0.3095 
     80 H80        17.1453  -24.6154  -45.3475 H         1 UNK         0.0454 
     81 H81        16.3107  -27.5519  -45.6146 H         1 UNK         0.0851 
     82 H82        15.7948  -26.2575  -46.6858 H         1 UNK         0.0851 
     83 H83        15.3220  -26.2303  -44.9970 H         1 UNK         0.0851 
     84 H84        17.2681  -26.6705  -43.4625 H         1 UNK         0.2976 
     85 H85        20.7352  -25.2536  -45.2685 H         1 UNK         0.3116 
     86 H86        22.2205  -23.9840  -44.3019 H         1 UNK         0.0646 
     87 H87        24.1649  -24.3393  -46.6370 H         1 UNK         0.0847 
     88 H88        24.1825  -23.0774  -45.4202 H         1 UNK         0.0847 
     89 H89        22.8720  -23.1400  -46.5861 H         1 UNK         0.0847 
     90 H90        22.1426  -26.9375  -44.0362 H         1 UNK         0.3040 
     91 H91        24.7834  -27.7923  -43.1625 H         1 UNK         0.1015 
     92 H92        23.0832  -29.3993  -44.0872 H         1 UNK         0.0786 
     93 H93        22.0068  -29.0430  -42.7373 H         1 UNK         0.0786 
     94 H94        23.5467  -29.8335  -42.4503 H         1 UNK         0.0786 
     95 H95        25.5368  -27.8780  -41.0650 H         1 UNK         0.3172 
     96 H96        24.3146  -26.1054  -39.0985 H         1 UNK         0.0595 
     97 H97        26.8972  -27.7575  -39.0174 H         1 UNK         0.0839 
     98 H98        26.4407  -26.5043  -37.8734 H         1 UNK         0.0839 
     99 H99        26.7651  -26.0782  -39.5437 H         1 UNK         0.0839 
    100 H100       23.8643  -29.4138  -39.7567 H         1 UNK         0.2998 
    101 H101       22.6399  -29.9316  -37.1693 H         1 UNK         0.0822 
    102 H102       25.0083  -30.7104  -36.7900 H         1 UNK         0.0787 
    103 H103       23.9128  -32.0797  -36.8614 H         1 UNK         0.0787 
    104 H104       24.9242  -31.6979  -38.2480 H         1 UNK         0.0787 
    105 H105       21.4658  -32.0458  -37.2933 H         1 UNK         0.3055 
    106 H106       19.8374  -32.1523  -39.6331 H         1 UNK         0.1106 
    107 H107       18.7362  -34.0460  -38.4250 H         1 UNK         0.0828 
    108 H108       20.0336  -34.0593  -37.2402 H         1 UNK         0.0828 
    109 H109       18.9636  -32.6620  -37.3692 H         1 UNK         0.0828 
    110 H110       19.7033  -33.6289  -41.2778 H         1 UNK         0.2931 
    111 H111       22.0012  -35.3155  -41.9051 H         1 UNK         0.0412 
    112 H112       21.8904  -37.6375  -42.2445 H         1 UNK         0.3472 
    113 H113       20.6725  -38.5808  -41.4252 H         1 UNK         0.3472 
    114 H114       20.1687  -35.8328  -43.9050 H         1 UNK         0.0970 
    115 H115       19.5678  -34.2892  -43.4031 H         1 UNK         0.0970 
    116 H116       22.2310  -32.5297  -42.6910 H         1 UNK         0.0612 
    117 H117       22.7139  -31.9659  -44.2674 H         1 UNK         0.0612 
@<TRIPOS>BOND
     1    1    2 1    
     2    1   62 1    
     3    1   63 1    
     4    1   64 1    
     5    2    3 2    
     6    2    4 am   BACKBONE|DICT|INTERRES
     7    4    5 1    
     8    4   65 1    
     9    5    6 1    
    10    5   25 1    
    11    5   66 1    
    12    6    7 1    
    13    6   67 1    
    14    6   68 1    
    15    7    8 1    
    16    8    9 1    
    17    8   69 1    
    18    8   70 1    
    19    9   10 ar   
    20    9   14 ar   
    21   10   11 ar   
    22   10   71 1    
    23   11   12 ar   
    24   11   61 1    
    25   12   13 ar   
    26   12   72 1    
    27   13   14 ar   
    28   13   15 1    
    29   14   73 1    
    30   15   16 1    
    31   15   74 1    
    32   15   75 1    
    33   16   17 1    
    34   17   18 1    
    35   17   76 1    
    36   17   77 1    
    37   18   19 1    
    38   18   27 1    
    39   18   78 1    
    40   19   20 am   BACKBONE|DICT|INTERRES
    41   19   79 1    
    42   20   21 2    
    43   20   22 1    
    44   22   23 1    
    45   22   24 1    
    46   22   80 1    
    47   23   81 1    
    48   23   82 1    
    49   23   83 1    
    50   24   25 am   BACKBONE|DICT|INTERRES
    51   24   84 1    
    52   25   26 2    
    53   27   28 2    
    54   27   29 am   BACKBONE|DICT|INTERRES
    55   29   30 1    
    56   29   85 1    
    57   30   31 1    
    58   30   32 1    
    59   30   86 1    
    60   31   87 1    
    61   31   88 1    
    62   31   89 1    
    63   32   33 2    
    64   32   34 am   BACKBONE|DICT|INTERRES
    65   34   35 1    
    66   34   90 1    
    67   35   36 1    
    68   35   37 1    
    69   35   91 1    
    70   36   92 1    
    71   36   93 1    
    72   36   94 1    
    73   37   38 2    
    74   37   39 am   BACKBONE|DICT|INTERRES
    75   39   40 1    
    76   39   95 1    
    77   40   41 1    
    78   40   42 1    
    79   40   96 1    
    80   41   97 1    
    81   41   98 1    
    82   41   99 1    
    83   42   43 2    
    84   42   44 am   BACKBONE|DICT|INTERRES
    85   44   45 1    
    86   44  100 1    
    87   45   46 1    
    88   45   47 1    
    89   45  101 1    
    90   46  102 1    
    91   46  103 1    
    92   46  104 1    
    93   47   48 2    
    94   47   49 am   BACKBONE|DICT|INTERRES
    95   49   50 1    
    96   49  105 1    
    97   50   51 1    
    98   50   52 1    
    99   50  106 1    
   100   51  107 1    
   101   51  108 1    
   102   51  109 1    
   103   52   53 2    
   104   52   54 am   BACKBONE|DICT|INTERRES
   105   54   55 1    
   106   54  110 1    
   107   55   56 1    
   108   55   59 1    
   109   55  111 1    
   110   56   57 am   BACKBONE|DICT|INTERRES
   111   56   58 2    
   112   57  112 1    
   113   57  113 1    
   114   59   60 1    
   115   59  114 1    
   116   59  115 1    
   117   60   61 1    
   118   61  116 1    
   119   61  117 1    
@<TRIPOS>SUBSTRUCTURE
     1 UNK         1 GROUP             0       ****    0 ROOT    
