@<TRIPOS>MOLECULE
3R8
117   119    1
SMALL
USER_CHARGES


@<TRIPOS>ATOM
      1 CA         16.5028  -24.4569  -48.7704 C.3       0 UNK        -0.2013 
      2 C          17.1222  -25.2124  -47.6041 C.2       0 UNK         0.4866 
      3 O          18.3454  -25.2228  -47.4621 O.2       0 UNK        -0.5176 
      4 N          16.2889  -25.8520  -46.7743 N.am      1 UNK        -0.4884 
      5 CA         16.7031  -26.5857  -45.5736 C.3       1 UNK         0.0853 
      6 C6         15.5700  -27.5001  -45.0457 C.3       10 UNK        -0.0849 
      7 S7         15.3431  -28.9385  -46.1476 S.3       10 UNK        -0.2776 
      8 C8         15.7835  -30.3529  -45.0753 C.3       10 UNK         0.0316 
      9 C9         17.0866  -30.1687  -44.3009 C.ar      10 UNK        -0.0863 
     10 C10        18.2668  -29.7924  -44.9511 C.ar      10 UNK        -0.1009 
     11 C11        19.4483  -29.5985  -44.2288 C.ar      10 UNK        -0.0712 
     12 C12        19.4503  -29.8244  -42.8482 C.ar      10 UNK        -0.0894 
     13 C13        18.2822  -30.2120  -42.1846 C.ar      10 UNK        -0.0745 
     14 C14        17.1047  -30.3788  -42.9184 C.ar      10 UNK        -0.0972 
     15 C15        18.2807  -30.4732  -40.6832 C.3       10 UNK         0.0209 
     16 S16        17.4861  -29.1166  -39.7601 S.3       10 UNK        -0.2568 
     17 C17        18.9086  -28.3106  -38.9455 C.3       10 UNK        -0.0983 
     18 CA         19.8878  -27.6508  -39.9427 C.3       3 UNK         0.0876 
     19 N          19.2283  -26.6890  -40.8273 N.am      3 UNK        -0.4424 
     20 C          19.7790  -26.2176  -41.9491 C.2       2 UNK         0.4918 
     21 O          20.8763  -26.5789  -42.3762 O.2       2 UNK        -0.4875 
     22 CA         18.9403  -25.2270  -42.7568 C.3       2 UNK         0.0481 
     23 CB         19.7983  -24.0886  -43.3422 C.3       2 UNK        -0.1831 
     24 N          18.2987  -25.9824  -43.8248 N.am      2 UNK        -0.4498 
     25 C          17.1917  -25.6179  -44.4793 C.2       1 UNK         0.5027 
     26 O          16.5560  -24.5869  -44.2435 O.2       1 UNK        -0.4969 
     27 C          21.0909  -27.0093  -39.2286 C.2       3 UNK         0.5005 
     28 O          21.0481  -25.8198  -38.9051 O.2       3 UNK        -0.5279 
     29 N          22.1415  -27.8158  -39.0249 N.am      4 UNK        -0.4463 
     30 CA         23.4604  -27.4601  -38.4859 C.3       4 UNK         0.0283 
     31 CB         23.3746  -26.7136  -37.1375 C.3       4 UNK        -0.1875 
     32 C          24.3858  -26.7488  -39.4926 C.2       4 UNK         0.4949 
     33 O          25.5373  -26.4893  -39.1436 O.2       4 UNK        -0.5039 
     34 N          23.9236  -26.4987  -40.7294 N.am      5 UNK        -0.4663 
     35 CA         24.7624  -26.0055  -41.8317 C.3       5 UNK         0.0242 
     36 CB         23.8750  -25.5175  -42.9876 C.3       5 UNK        -0.1982 
     37 C          25.7513  -27.0771  -42.3253 C.2       5 UNK         0.5017 
     38 O          26.8938  -26.7531  -42.6500 O.2       5 UNK        -0.5012 
     39 N          25.2954  -28.3346  -42.3276 N.am      6 UNK        -0.4439 
     40 CA         26.0848  -29.5404  -42.5641 C.3       6 UNK         0.0297 
     41 CB         26.1704  -29.8436  -44.0727 C.3       6 UNK        -0.2006 
     42 C          25.4634  -30.6791  -41.7426 C.2       6 UNK         0.4892 
     43 O          25.1606  -31.7434  -42.2843 O.2       6 UNK        -0.5089 
     44 N          25.2346  -30.4037  -40.4481 N.am      7 UNK        -0.4243 
     45 CA         24.4963  -31.2336  -39.4897 C.3       7 UNK         0.0196 
     46 CB         25.2795  -32.5273  -39.1629 C.3       7 UNK        -0.2007 
     47 C          23.0492  -31.4608  -39.9710 C.2       7 UNK         0.5020 
     48 O          22.3036  -30.4867  -40.1064 O.2       7 UNK        -0.5147 
     49 N          22.6916  -32.7229  -40.2336 N.am      8 UNK        -0.4734 
     50 CA         21.4048  -33.1400  -40.7943 C.3       8 UNK         0.0238 
     51 CB         21.0838  -34.5555  -40.2837 C.3       8 UNK        -0.1912 
     52 C          21.3642  -33.0971  -42.3353 C.2       8 UNK         0.5038 
     53 O          20.3024  -33.3609  -42.9007 O.2       8 UNK        -0.5046 
     54 N          22.4997  -32.7936  -42.9821 N.am      9 UNK        -0.4200 
     55 CA         22.6999  -32.7737  -44.4408 C.3       9 UNK         0.0839 
     56 C          22.5557  -34.1808  -45.0996 C.2       9 UNK         0.5513 
     57 N          22.4366  -34.2613  -46.4190 N.am      9 UNK        -0.7519 
     58 O          22.6069  -35.2152  -44.4359 O.2       9 UNK        -0.4960 
     59 C59        21.8784  -31.6570  -45.1505 C.3       10 UNK        -0.0876 
     60 S60        22.2189  -29.9997  -44.4673 S.3       10 UNK        -0.2414 
     61 C61        20.7040  -29.1084  -44.9448 C.3       10 UNK         0.0169 
     62 H62        15.4167  -24.5460  -48.7840 H         1 UNK         0.0903 
     63 H63        16.7555  -23.3988  -48.7081 H         1 UNK         0.0903 
     64 H64        16.8862  -24.8440  -49.7142 H         1 UNK         0.0903 
     65 H65        15.2926  -25.8020  -46.9326 H         1 UNK         0.3096 
     66 H66        17.5518  -27.2119  -45.8564 H         1 UNK         0.1121 
     67 H67        14.6286  -26.9520  -44.9771 H         1 UNK         0.0849 
     68 H68        15.7798  -27.8483  -44.0327 H         1 UNK         0.0849 
     69 H69        14.9528  -30.5297  -44.3902 H         1 UNK         0.0865 
     70 H70        15.8648  -31.2494  -45.6912 H         1 UNK         0.0865 
     71 H71        18.2560  -29.6300  -46.0203 H         1 UNK         0.1346 
     72 H72        20.3729  -29.7062  -42.2998 H         1 UNK         0.1412 
     73 H73        16.1998  -30.6746  -42.4049 H         1 UNK         0.1426 
     74 H74        19.2950  -30.6274  -40.3162 H         1 UNK         0.0716 
     75 H75        17.7419  -31.3999  -40.4802 H         1 UNK         0.0716 
     76 H76        19.4231  -29.0585  -38.3387 H         1 UNK         0.0695 
     77 H77        18.5192  -27.5676  -38.2470 H         1 UNK         0.0695 
     78 H78        20.2960  -28.4386  -40.5714 H         1 UNK         0.0983 
     79 H79        18.3188  -26.3621  -40.5378 H         1 UNK         0.3095 
     80 H80        18.1790  -24.7951  -42.1036 H         1 UNK         0.0454 
     81 H81        19.1846  -23.3573  -43.8679 H         1 UNK         0.0851 
     82 H82        20.5442  -24.4641  -44.0440 H         1 UNK         0.0851 
     83 H83        20.3313  -23.5579  -42.5524 H         1 UNK         0.0851 
     84 H84        18.7439  -26.8630  -44.0485 H         1 UNK         0.2976 
     85 H85        22.0742  -28.7770  -39.3601 H         1 UNK         0.3116 
     86 H86        23.9427  -28.4142  -38.2778 H         1 UNK         0.0646 
     87 H87        23.0214  -25.6893  -37.2566 H         1 UNK         0.0847 
     88 H88        24.3553  -26.6568  -36.6636 H         1 UNK         0.0847 
     89 H89        22.7089  -27.2225  -36.4405 H         1 UNK         0.0847 
     90 H90        22.9568  -26.7029  -40.9456 H         1 UNK         0.3040 
     91 H91        25.3448  -25.1568  -41.4656 H         1 UNK         0.1015 
     92 H92        23.3076  -26.3341  -43.4360 H         1 UNK         0.0786 
     93 H93        24.4787  -25.0707  -43.7786 H         1 UNK         0.0786 
     94 H94        23.1653  -24.7602  -42.6537 H         1 UNK         0.0786 
     95 H95        24.3326  -28.4902  -42.0603 H         1 UNK         0.3172 
     96 H96        27.0969  -29.3908  -42.1821 H         1 UNK         0.0595 
     97 H97        25.1855  -30.0161  -44.5059 H         1 UNK         0.0839 
     98 H98        26.7689  -30.7364  -44.2577 H         1 UNK         0.0839 
     99 H99        26.6365  -29.0225  -44.6173 H         1 UNK         0.0839 
    100 H100       25.5336  -29.5016  -40.1058 H         1 UNK         0.2998 
    101 H101       24.4213  -30.6626  -38.5642 H         1 UNK         0.0822 
    102 H102       26.2681  -32.2913  -38.7689 H         1 UNK         0.0787 
    103 H103       24.7687  -33.1162  -38.3997 H         1 UNK         0.0787 
    104 H104       25.4229  -33.1644  -40.0363 H         1 UNK         0.0787 
    105 H105       23.3839  -33.4476  -40.1057 H         1 UNK         0.3055 
    106 H106       20.6256  -32.4678  -40.4346 H         1 UNK         0.1106 
    107 H107       20.1045  -34.8853  -40.6336 H         1 UNK         0.0828 
    108 H108       21.8155  -35.2858  -40.6315 H         1 UNK         0.0828 
    109 H109       21.0633  -34.5904  -39.1943 H         1 UNK         0.0828 
    110 H110       23.3309  -32.5783  -42.4428 H         1 UNK         0.2931 
    111 H111       23.7539  -32.5246  -44.5681 H         1 UNK         0.0412 
    112 H112       22.3647  -35.1720  -46.8459 H         1 UNK         0.3472 
    113 H113       22.4265  -33.4373  -46.9985 H         1 UNK         0.3472 
    114 H114       20.8111  -31.8728  -45.0815 H         1 UNK         0.0970 
    115 H115       22.1127  -31.6128  -46.2144 H         1 UNK         0.0970 
    116 H116       20.5868  -29.1799  -46.0272 H         1 UNK         0.0612 
    117 H117       20.8420  -28.0506  -44.7188 H         1 UNK         0.0612 
@<TRIPOS>BOND
     1    1    2 1    
     2    1   62 1    
     3    1   63 1    
     4    1   64 1    
     5    2    3 2    
     6    2    4 am   BACKBONE|DICT|INTERRES
     7    4    5 1    
     8    4   65 1    
     9    5    6 1    
    10    5   25 1    
    11    5   66 1    
    12    6    7 1    
    13    6   67 1    
    14    6   68 1    
    15    7    8 1    
    16    8    9 1    
    17    8   69 1    
    18    8   70 1    
    19    9   10 ar   
    20    9   14 ar   
    21   10   11 ar   
    22   10   71 1    
    23   11   12 ar   
    24   11   61 1    
    25   12   13 ar   
    26   12   72 1    
    27   13   14 ar   
    28   13   15 1    
    29   14   73 1    
    30   15   16 1    
    31   15   74 1    
    32   15   75 1    
    33   16   17 1    
    34   17   18 1    
    35   17   76 1    
    36   17   77 1    
    37   18   19 1    
    38   18   27 1    
    39   18   78 1    
    40   19   20 am   BACKBONE|DICT|INTERRES
    41   19   79 1    
    42   20   21 2    
    43   20   22 1    
    44   22   23 1    
    45   22   24 1    
    46   22   80 1    
    47   23   81 1    
    48   23   82 1    
    49   23   83 1    
    50   24   25 am   BACKBONE|DICT|INTERRES
    51   24   84 1    
    52   25   26 2    
    53   27   28 2    
    54   27   29 am   BACKBONE|DICT|INTERRES
    55   29   30 1    
    56   29   85 1    
    57   30   31 1    
    58   30   32 1    
    59   30   86 1    
    60   31   87 1    
    61   31   88 1    
    62   31   89 1    
    63   32   33 2    
    64   32   34 am   BACKBONE|DICT|INTERRES
    65   34   35 1    
    66   34   90 1    
    67   35   36 1    
    68   35   37 1    
    69   35   91 1    
    70   36   92 1    
    71   36   93 1    
    72   36   94 1    
    73   37   38 2    
    74   37   39 am   BACKBONE|DICT|INTERRES
    75   39   40 1    
    76   39   95 1    
    77   40   41 1    
    78   40   42 1    
    79   40   96 1    
    80   41   97 1    
    81   41   98 1    
    82   41   99 1    
    83   42   43 2    
    84   42   44 am   BACKBONE|DICT|INTERRES
    85   44   45 1    
    86   44  100 1    
    87   45   46 1    
    88   45   47 1    
    89   45  101 1    
    90   46  102 1    
    91   46  103 1    
    92   46  104 1    
    93   47   48 2    
    94   47   49 am   BACKBONE|DICT|INTERRES
    95   49   50 1    
    96   49  105 1    
    97   50   51 1    
    98   50   52 1    
    99   50  106 1    
   100   51  107 1    
   101   51  108 1    
   102   51  109 1    
   103   52   53 2    
   104   52   54 am   BACKBONE|DICT|INTERRES
   105   54   55 1    
   106   54  110 1    
   107   55   56 1    
   108   55   59 1    
   109   55  111 1    
   110   56   57 am   BACKBONE|DICT|INTERRES
   111   56   58 2    
   112   57  112 1    
   113   57  113 1    
   114   59   60 1    
   115   59  114 1    
   116   59  115 1    
   117   60   61 1    
   118   61  116 1    
   119   61  117 1    
@<TRIPOS>SUBSTRUCTURE
     1 UNK         1 GROUP             0       ****    0 ROOT    
