@<TRIPOS>MOLECULE
3R8
117   119    1
SMALL
USER_CHARGES


@<TRIPOS>ATOM
      1 CA         14.8278  -22.4781  -44.8685 C.3       0 UNK        -0.2013 
      2 C          16.0056  -23.2846  -45.3954 C.2       0 UNK         0.4866 
      3 O          16.9602  -22.7049  -45.9150 O.2       0 UNK        -0.5176 
      4 N          15.9419  -24.6166  -45.2730 N.am      1 UNK        -0.4884 
      5 CA         17.0148  -25.5424  -45.6535 C.3       1 UNK         0.0853 
      6 C6         16.4451  -26.9459  -45.9769 C.3       10 UNK        -0.0849 
      7 S7         17.4626  -27.8404  -47.2023 S.3       10 UNK        -0.2776 
      8 C8         17.2141  -29.5751  -46.7086 C.3       10 UNK         0.0316 
      9 C9         17.9734  -29.9129  -45.4352 C.ar      10 UNK        -0.0863 
     10 C10        19.3311  -30.2385  -45.4905 C.ar      10 UNK        -0.1009 
     11 C11        20.0301  -30.5616  -44.3238 C.ar      10 UNK        -0.0712 
     12 C12        19.3684  -30.5295  -43.0924 C.ar      10 UNK        -0.0894 
     13 C13        18.0160  -30.1841  -43.0225 C.ar      10 UNK        -0.0745 
     14 C14        17.3194  -29.9047  -44.2010 C.ar      10 UNK        -0.0972 
     15 C15        17.2942  -30.1080  -41.6842 C.3       10 UNK         0.0209 
     16 S16        16.7147  -28.4125  -41.3402 S.3       10 UNK        -0.2568 
     17 C17        18.0002  -27.7335  -40.2367 C.3       10 UNK        -0.0983 
     18 CA         19.4335  -27.6910  -40.8233 C.3       3 UNK         0.0876 
     19 N          19.5042  -27.0300  -42.1291 N.am      3 UNK        -0.4424 
     20 C          20.5908  -27.0057  -42.9099 C.2       2 UNK         0.4918 
     21 O          21.6283  -27.6091  -42.6263 O.2       2 UNK        -0.4875 
     22 CA         20.5429  -26.1401  -44.1893 C.3       2 UNK         0.0481 
     23 CB         21.6881  -26.4844  -45.1600 C.3       2 UNK        -0.1831 
     24 N          19.2774  -26.1676  -44.9328 N.am      2 UNK        -0.4498 
     25 C          18.1290  -25.5758  -44.5800 C.2       1 UNK         0.5027 
     26 O          17.9427  -25.0657  -43.4713 O.2       1 UNK        -0.4969 
     27 C          20.3965  -26.9949  -39.8410 C.2       3 UNK         0.5005 
     28 O          20.3272  -25.7720  -39.6981 O.2       3 UNK        -0.5279 
     29 N          21.3079  -27.7669  -39.2315 N.am      4 UNK        -0.4463 
     30 CA         22.3992  -27.3581  -38.3294 C.3       4 UNK         0.0283 
     31 CB         21.8601  -26.6537  -37.0684 C.3       4 UNK        -0.1875 
     32 C          23.5246  -26.5319  -38.9885 C.2       4 UNK         0.4949 
     33 O          24.6576  -26.5881  -38.5096 O.2       4 UNK        -0.5039 
     34 N          23.2195  -25.7988  -40.0679 N.am      5 UNK        -0.4663 
     35 CA         24.1833  -25.0774  -40.9036 C.3       5 UNK         0.0242 
     36 CB         23.4288  -24.1446  -41.8643 C.3       5 UNK        -0.1982 
     37 C          25.1070  -26.0294  -41.6828 C.2       5 UNK         0.5017 
     38 O          26.2975  -25.7433  -41.8156 O.2       5 UNK        -0.5012 
     39 N          24.5433  -27.1477  -42.1529 N.am      6 UNK        -0.4439 
     40 CA         25.2577  -28.2938  -42.7076 C.3       6 UNK         0.0297 
     41 CB         24.6490  -28.6370  -44.0752 C.3       6 UNK        -0.2006 
     42 C          25.1471  -29.4759  -41.7310 C.2       6 UNK         0.4892 
     43 O          24.3967  -29.4070  -40.7525 O.2       6 UNK        -0.5089 
     44 N          25.9092  -30.5416  -42.0096 N.am      7 UNK        -0.4243 
     45 CA         26.0780  -31.7366  -41.1741 C.3       7 UNK         0.0196 
     46 CB         27.3329  -32.4934  -41.6496 C.3       7 UNK        -0.2007 
     47 C          24.8337  -32.6489  -41.1004 C.2       7 UNK         0.5020 
     48 O          24.9087  -33.8258  -41.4572 O.2       7 UNK        -0.5147 
     49 N          23.7143  -32.0892  -40.6259 N.am      8 UNK        -0.4734 
     50 CA         22.4238  -32.7000  -40.2679 C.3       8 UNK         0.0238 
     51 CB         22.6007  -33.7087  -39.1163 C.3       8 UNK        -0.1912 
     52 C          21.6120  -33.3314  -41.4142 C.2       8 UNK         0.5038 
     53 O          20.3836  -33.2997  -41.3423 O.2       8 UNK        -0.5046 
     54 N          22.2845  -33.8922  -42.4263 N.am      9 UNK        -0.4200 
     55 CA         21.7033  -34.6180  -43.5701 C.3       9 UNK         0.0839 
     56 C          20.9793  -35.9465  -43.1848 C.2       9 UNK         0.5513 
     57 N          21.2588  -36.5382  -42.0291 N.am      9 UNK        -0.7519 
     58 O          20.1787  -36.4728  -43.9538 O.2       9 UNK        -0.4960 
     59 C59        20.8480  -33.7057  -44.4970 C.3       10 UNK        -0.0876 
     60 S60        21.8431  -32.4322  -45.3468 S.3       10 UNK        -0.2414 
     61 C61        21.5073  -30.9195  -44.3886 C.3       10 UNK         0.0169 
     62 H62        14.0488  -23.1168  -44.4527 H         1 UNK         0.0903 
     63 H63        15.1607  -21.7967  -44.0860 H         1 UNK         0.0903 
     64 H64        14.3884  -21.8868  -45.6715 H         1 UNK         0.0903 
     65 H65        15.1513  -25.0314  -44.8003 H         1 UNK         0.3096 
     66 H66        17.4688  -25.1430  -46.5641 H         1 UNK         0.1121 
     67 H67        15.4503  -26.8565  -46.4171 H         1 UNK         0.0849 
     68 H68        16.3103  -27.5291  -45.0665 H         1 UNK         0.0849 
     69 H69        16.1477  -29.7744  -46.5900 H         1 UNK         0.0865 
     70 H70        17.5542  -30.2240  -47.5172 H         1 UNK         0.0865 
     71 H71        19.8443  -30.2487  -46.4424 H         1 UNK         0.1346 
     72 H72        19.9098  -30.7678  -42.1883 H         1 UNK         0.1412 
     73 H73        16.2679  -29.6576  -44.1482 H         1 UNK         0.1426 
     74 H74        17.9249  -30.4642  -40.8683 H         1 UNK         0.0716 
     75 H75        16.4302  -30.7731  -41.7148 H         1 UNK         0.0716 
     76 H76        17.9894  -28.3152  -39.3129 H         1 UNK         0.0695 
     77 H77        17.6771  -26.7275  -39.9607 H         1 UNK         0.0695 
     78 H78        19.7740  -28.7171  -40.9617 H         1 UNK         0.0983 
     79 H79        18.7117  -26.4560  -42.3980 H         1 UNK         0.3095 
     80 H80        20.6985  -25.1111  -43.8601 H         1 UNK         0.0454 
     81 H81        21.6791  -25.8358  -46.0359 H         1 UNK         0.0851 
     82 H82        21.6242  -27.5176  -45.5039 H         1 UNK         0.0851 
     83 H83        22.6606  -26.3578  -44.6827 H         1 UNK         0.0851 
     84 H84        19.3011  -26.6408  -45.8262 H         1 UNK         0.2976 
     85 H85        21.3138  -28.7505  -39.4633 H         1 UNK         0.3116 
     86 H86        22.8652  -28.2904  -38.0056 H         1 UNK         0.0646 
     87 H87        21.4132  -25.6863  -37.2985 H         1 UNK         0.0847 
     88 H88        22.6633  -26.4732  -36.3529 H         1 UNK         0.0847 
     89 H89        21.1084  -27.2606  -36.5641 H         1 UNK         0.0847 
     90 H90        22.2419  -25.7515  -40.3324 H         1 UNK         0.3040 
     91 H91        24.8099  -24.4675  -40.2489 H         1 UNK         0.1015 
     92 H92        22.7830  -24.7013  -42.5433 H         1 UNK         0.0786 
     93 H93        24.1255  -23.5694  -42.4755 H         1 UNK         0.0786 
     94 H94        22.8092  -23.4311  -41.3206 H         1 UNK         0.0786 
     95 H95        23.5573  -27.3068  -41.9687 H         1 UNK         0.3172 
     96 H96        26.3170  -28.0645  -42.8392 H         1 UNK         0.0595 
     97 H97        23.5806  -28.8201  -43.9895 H         1 UNK         0.0839 
     98 H98        25.1044  -29.5257  -44.5134 H         1 UNK         0.0839 
     99 H99        24.7891  -27.8203  -44.7832 H         1 UNK         0.0839 
    100 H100       26.4651  -30.5168  -42.8524 H         1 UNK         0.2998 
    101 H101       26.2704  -31.3997  -40.1531 H         1 UNK         0.0822 
    102 H102       28.2199  -31.8610  -41.6058 H         1 UNK         0.0787 
    103 H103       27.5291  -33.3625  -41.0199 H         1 UNK         0.0787 
    104 H104       27.2243  -32.8511  -42.6744 H         1 UNK         0.0787 
    105 H105       23.7767  -31.0845  -40.4614 H         1 UNK         0.3055 
    106 H106       21.8123  -31.8793  -39.8891 H         1 UNK         0.1106 
    107 H107       21.6371  -34.1034  -38.7905 H         1 UNK         0.0828 
    108 H108       23.2163  -34.5594  -39.4101 H         1 UNK         0.0828 
    109 H109       23.0672  -33.2418  -38.2489 H         1 UNK         0.0828 
    110 H110       23.2978  -33.9148  -42.3462 H         1 UNK         0.2931 
    111 H111       22.5608  -34.9509  -44.1560 H         1 UNK         0.0412 
    112 H112       20.7967  -37.4020  -41.7916 H         1 UNK         0.3472 
    113 H113       21.9297  -36.1326  -41.3967 H         1 UNK         0.3472 
    114 H114       20.3820  -34.2946  -45.2885 H         1 UNK         0.0970 
    115 H115       20.0209  -33.2540  -43.9497 H         1 UNK         0.0970 
    116 H116       21.9378  -31.0166  -43.3909 H         1 UNK         0.0612 
    117 H117       22.0293  -30.0978  -44.8756 H         1 UNK         0.0612 
@<TRIPOS>BOND
     1    1    2 1    
     2    1   62 1    
     3    1   63 1    
     4    1   64 1    
     5    2    3 2    
     6    2    4 am   BACKBONE|DICT|INTERRES
     7    4    5 1    
     8    4   65 1    
     9    5    6 1    
    10    5   25 1    
    11    5   66 1    
    12    6    7 1    
    13    6   67 1    
    14    6   68 1    
    15    7    8 1    
    16    8    9 1    
    17    8   69 1    
    18    8   70 1    
    19    9   10 ar   
    20    9   14 ar   
    21   10   11 ar   
    22   10   71 1    
    23   11   12 ar   
    24   11   61 1    
    25   12   13 ar   
    26   12   72 1    
    27   13   14 ar   
    28   13   15 1    
    29   14   73 1    
    30   15   16 1    
    31   15   74 1    
    32   15   75 1    
    33   16   17 1    
    34   17   18 1    
    35   17   76 1    
    36   17   77 1    
    37   18   19 1    
    38   18   27 1    
    39   18   78 1    
    40   19   20 am   BACKBONE|DICT|INTERRES
    41   19   79 1    
    42   20   21 2    
    43   20   22 1    
    44   22   23 1    
    45   22   24 1    
    46   22   80 1    
    47   23   81 1    
    48   23   82 1    
    49   23   83 1    
    50   24   25 am   BACKBONE|DICT|INTERRES
    51   24   84 1    
    52   25   26 2    
    53   27   28 2    
    54   27   29 am   BACKBONE|DICT|INTERRES
    55   29   30 1    
    56   29   85 1    
    57   30   31 1    
    58   30   32 1    
    59   30   86 1    
    60   31   87 1    
    61   31   88 1    
    62   31   89 1    
    63   32   33 2    
    64   32   34 am   BACKBONE|DICT|INTERRES
    65   34   35 1    
    66   34   90 1    
    67   35   36 1    
    68   35   37 1    
    69   35   91 1    
    70   36   92 1    
    71   36   93 1    
    72   36   94 1    
    73   37   38 2    
    74   37   39 am   BACKBONE|DICT|INTERRES
    75   39   40 1    
    76   39   95 1    
    77   40   41 1    
    78   40   42 1    
    79   40   96 1    
    80   41   97 1    
    81   41   98 1    
    82   41   99 1    
    83   42   43 2    
    84   42   44 am   BACKBONE|DICT|INTERRES
    85   44   45 1    
    86   44  100 1    
    87   45   46 1    
    88   45   47 1    
    89   45  101 1    
    90   46  102 1    
    91   46  103 1    
    92   46  104 1    
    93   47   48 2    
    94   47   49 am   BACKBONE|DICT|INTERRES
    95   49   50 1    
    96   49  105 1    
    97   50   51 1    
    98   50   52 1    
    99   50  106 1    
   100   51  107 1    
   101   51  108 1    
   102   51  109 1    
   103   52   53 2    
   104   52   54 am   BACKBONE|DICT|INTERRES
   105   54   55 1    
   106   54  110 1    
   107   55   56 1    
   108   55   59 1    
   109   55  111 1    
   110   56   57 am   BACKBONE|DICT|INTERRES
   111   56   58 2    
   112   57  112 1    
   113   57  113 1    
   114   59   60 1    
   115   59  114 1    
   116   59  115 1    
   117   60   61 1    
   118   61  116 1    
   119   61  117 1    
@<TRIPOS>SUBSTRUCTURE
     1 UNK         1 GROUP             0       ****    0 ROOT    
