@<TRIPOS>MOLECULE
3R8
117   119    1
SMALL
USER_CHARGES


@<TRIPOS>ATOM
      1 CA         13.6550  -24.8547  -42.1566 C.3       0 UNK        -0.2013 
      2 C          14.9381  -25.5426  -42.5977 C.2       0 UNK         0.4866 
      3 O          15.7195  -24.9582  -43.3491 O.2       0 UNK        -0.5176 
      4 N          15.1597  -26.7822  -42.1434 N.am      1 UNK        -0.4884 
      5 CA         16.3598  -27.5732  -42.4250 C.3       1 UNK         0.0853 
      6 C6         16.1121  -29.0883  -42.2152 C.3       10 UNK        -0.0849 
      7 S7         15.0364  -29.7856  -43.5135 S.3       10 UNK        -0.2776 
      8 C8         16.0145  -31.2268  -44.0856 C.3       10 UNK         0.0316 
      9 C9         17.4107  -30.9219  -44.6398 C.ar      10 UNK        -0.0863 
     10 C10        18.3521  -31.9549  -44.6876 C.ar      10 UNK        -0.1009 
     11 C11        19.6367  -31.7276  -45.1877 C.ar      10 UNK        -0.0712 
     12 C12        19.9916  -30.4479  -45.6213 C.ar      10 UNK        -0.0894 
     13 C13        19.0715  -29.3937  -45.5698 C.ar      10 UNK        -0.0745 
     14 C14        17.7771  -29.6541  -45.1097 C.ar      10 UNK        -0.0972 
     15 C15        19.4040  -27.9597  -45.9917 C.3       10 UNK         0.0209 
     16 S16        21.0972  -27.6416  -46.6032 S.3       10 UNK        -0.2568 
     17 C17        22.1258  -27.7733  -45.1014 C.3       10 UNK        -0.0983 
     18 CA         22.1422  -26.4610  -44.2750 C.3       3 UNK         0.0876 
     19 N          21.0761  -26.4563  -43.2715 N.am      3 UNK        -0.4424 
     20 C          20.5949  -25.3603  -42.6751 C.2       2 UNK         0.4918 
     21 O          20.9138  -24.2129  -42.9911 O.2       2 UNK        -0.4875 
     22 CA         19.5537  -25.5998  -41.5730 C.3       2 UNK         0.0481 
     23 CB         19.1591  -24.3167  -40.8161 C.3       2 UNK        -0.1831 
     24 N          18.3720  -26.2062  -42.1774 N.am      2 UNK        -0.4498 
     25 C          17.5358  -27.0576  -41.5733 C.2       1 UNK         0.5027 
     26 O          17.6419  -27.4158  -40.3989 O.2       1 UNK        -0.4969 
     27 C          23.4862  -26.2812  -43.5470 C.2       3 UNK         0.5005 
     28 O          23.7642  -27.0294  -42.6105 O.2       3 UNK        -0.5279 
     29 N          24.3140  -25.3241  -43.9872 N.am      4 UNK        -0.4463 
     30 CA         25.5653  -24.9250  -43.3228 C.3       4 UNK         0.0283 
     31 CB         26.2044  -23.7667  -44.1062 C.3       4 UNK        -0.1875 
     32 C          26.5958  -26.0520  -43.1043 C.2       4 UNK         0.4949 
     33 O          27.4140  -25.9495  -42.1900 O.2       4 UNK        -0.5039 
     34 N          26.5411  -27.0979  -43.9380 N.am      5 UNK        -0.4663 
     35 CA         27.4343  -28.2531  -43.8773 C.3       5 UNK         0.0242 
     36 CB         27.4997  -28.8967  -45.2728 C.3       5 UNK        -0.1982 
     37 C          27.0405  -29.3104  -42.8285 C.2       5 UNK         0.5017 
     38 O          27.9150  -30.0858  -42.4380 O.2       5 UNK        -0.5012 
     39 N          25.7606  -29.3788  -42.4245 N.am      6 UNK        -0.4439 
     40 CA         25.2317  -30.5164  -41.6518 C.3       6 UNK         0.0297 
     41 CB         24.9597  -31.6958  -42.6073 C.3       6 UNK        -0.2006 
     42 C          24.0035  -30.2108  -40.7732 C.2       6 UNK         0.4892 
     43 O          23.4579  -31.1419  -40.1761 O.2       6 UNK        -0.5089 
     44 N          23.5797  -28.9424  -40.6922 N.am      7 UNK        -0.4243 
     45 CA         22.3929  -28.4486  -39.9902 C.3       7 UNK         0.0196 
     46 CB         22.5563  -28.5770  -38.4576 C.3       7 UNK        -0.2007 
     47 C          21.1176  -29.0929  -40.5609 C.2       7 UNK         0.5020 
     48 O          20.8005  -28.8610  -41.7289 O.2       7 UNK        -0.5147 
     49 N          20.4185  -29.8843  -39.7410 N.am      8 UNK        -0.4734 
     50 CA         19.2091  -30.6094  -40.1281 C.3       8 UNK         0.0238 
     51 CB         18.2903  -30.7337  -38.9007 C.3       8 UNK        -0.1912 
     52 C          19.4882  -31.9898  -40.7507 C.2       8 UNK         0.5038 
     53 O          18.5312  -32.6563  -41.1469 O.2       8 UNK        -0.5046 
     54 N          20.7615  -32.4130  -40.7929 N.am      9 UNK        -0.4200 
     55 CA         21.2183  -33.7446  -41.2322 C.3       9 UNK         0.0839 
     56 C          20.7868  -34.9135  -40.2928 C.2       9 UNK         0.5513 
     57 N          20.4012  -34.6546  -39.0486 N.am      9 UNK        -0.7519 
     58 O          20.8317  -36.0787  -40.6800 O.2       9 UNK        -0.4960 
     59 C59        20.9218  -34.0382  -42.7322 C.3       10 UNK        -0.0876 
     60 S60        21.7687  -32.8769  -43.8525 S.3       10 UNK        -0.2414 
     61 C61        20.6462  -32.8604  -45.2813 C.3       10 UNK         0.0169 
     62 H62        13.0553  -25.4887  -41.5038 H         1 UNK         0.0903 
     63 H63        13.8881  -23.9369  -41.6176 H         1 UNK         0.0903 
     64 H64        13.0508  -24.5956  -43.0256 H         1 UNK         0.0903 
     65 H65        14.4895  -27.2126  -41.5219 H         1 UNK         0.3096 
     66 H66        16.6251  -27.4191  -43.4718 H         1 UNK         0.1121 
     67 H67        17.0553  -29.6304  -42.2398 H         1 UNK         0.0849 
     68 H68        15.6737  -29.2870  -41.2355 H         1 UNK         0.0849 
     69 H69        16.1026  -31.9245  -43.2506 H         1 UNK         0.0865 
     70 H70        15.4441  -31.7441  -44.8580 H         1 UNK         0.0865 
     71 H71        18.0825  -32.9426  -44.3392 H         1 UNK         0.1346 
     72 H72        20.9922  -30.2893  -45.9956 H         1 UNK         0.1412 
     73 H73        17.0539  -28.8533  -45.1170 H         1 UNK         0.1426 
     74 H74        19.2031  -27.2881  -45.1569 H         1 UNK         0.0716 
     75 H75        18.7125  -27.6717  -46.7848 H         1 UNK         0.0716 
     76 H76        23.1268  -28.0295  -45.4547 H         1 UNK         0.0695 
     77 H77        21.8090  -28.6200  -44.4898 H         1 UNK         0.0695 
     78 H78        22.0015  -25.6098  -44.9451 H         1 UNK         0.0983 
     79 H79        20.8311  -27.3650  -42.8821 H         1 UNK         0.3095 
     80 H80        19.9973  -26.2942  -40.8576 H         1 UNK         0.0454 
     81 H81        18.4683  -24.5338  -40.0015 H         1 UNK         0.0851 
     82 H82        18.6809  -23.5913  -41.4753 H         1 UNK         0.0851 
     83 H83        20.0348  -23.8361  -40.3783 H         1 UNK         0.0851 
     84 H84        18.1777  -25.9250  -43.1296 H         1 UNK         0.2976 
     85 H85        24.0284  -24.7614  -44.7765 H         1 UNK         0.3116 
     86 H86        25.2936  -24.5530  -42.3327 H         1 UNK         0.0646 
     87 H87        26.4637  -24.0623  -45.1236 H         1 UNK         0.0847 
     88 H88        27.1217  -23.4266  -43.6232 H         1 UNK         0.0847 
     89 H89        25.5363  -22.9073  -44.1641 H         1 UNK         0.0847 
     90 H90        25.8391  -27.0944  -44.6633 H         1 UNK         0.3040 
     91 H91        28.4378  -27.9049  -43.6206 H         1 UNK         0.1015 
     92 H92        26.5247  -29.2651  -45.5947 H         1 UNK         0.0786 
     93 H93        28.1864  -29.7445  -45.2808 H         1 UNK         0.0786 
     94 H94        27.8562  -28.1882  -46.0209 H         1 UNK         0.0786 
     95 H95        25.1011  -28.6802  -42.7492 H         1 UNK         0.3172 
     96 H96        25.9955  -30.8349  -40.9394 H         1 UNK         0.0595 
     97 H97        24.2711  -31.4068  -43.4010 H         1 UNK         0.0839 
     98 H98        24.5221  -32.5483  -42.0862 H         1 UNK         0.0839 
     99 H99        25.8773  -32.0503  -43.0764 H         1 UNK         0.0839 
    100 H100       24.0015  -28.2449  -41.3002 H         1 UNK         0.2998 
    101 H101       22.3216  -27.3851  -40.2230 H         1 UNK         0.0822 
    102 H102       23.4361  -28.0314  -38.1163 H         1 UNK         0.0787 
    103 H103       21.6983  -28.1538  -37.9335 H         1 UNK         0.0787 
    104 H104       22.6697  -29.6115  -38.1324 H         1 UNK         0.0787 
    105 H105       20.7624  -30.0298  -38.8025 H         1 UNK         0.3055 
    106 H106       18.6863  -30.0256  -40.8830 H         1 UNK         0.1106 
    107 H107       17.3528  -31.2272  -39.1609 H         1 UNK         0.0828 
    108 H108       18.7545  -31.3137  -38.1025 H         1 UNK         0.0828 
    109 H109       18.0333  -29.7523  -38.5009 H         1 UNK         0.0828 
    110 H110       21.4950  -31.7966  -40.4604 H         1 UNK         0.2931 
    111 H111       22.3033  -33.7129  -41.1267 H         1 UNK         0.0412 
    112 H112       20.1351  -35.4171  -38.4452 H         1 UNK         0.3472 
    113 H113       20.3783  -33.7076  -38.7071 H         1 UNK         0.3472 
    114 H114       19.8484  -34.0257  -42.9221 H         1 UNK         0.0970 
    115 H115       21.2620  -35.0385  -43.0054 H         1 UNK         0.0970 
    116 H116       20.1432  -33.8239  -45.3776 H         1 UNK         0.0612 
    117 H117       21.2420  -32.7409  -46.1875 H         1 UNK         0.0612 
@<TRIPOS>BOND
     1    1    2 1    
     2    1   62 1    
     3    1   63 1    
     4    1   64 1    
     5    2    3 2    
     6    2    4 am   BACKBONE|DICT|INTERRES
     7    4    5 1    
     8    4   65 1    
     9    5    6 1    
    10    5   25 1    
    11    5   66 1    
    12    6    7 1    
    13    6   67 1    
    14    6   68 1    
    15    7    8 1    
    16    8    9 1    
    17    8   69 1    
    18    8   70 1    
    19    9   10 ar   
    20    9   14 ar   
    21   10   11 ar   
    22   10   71 1    
    23   11   12 ar   
    24   11   61 1    
    25   12   13 ar   
    26   12   72 1    
    27   13   14 ar   
    28   13   15 1    
    29   14   73 1    
    30   15   16 1    
    31   15   74 1    
    32   15   75 1    
    33   16   17 1    
    34   17   18 1    
    35   17   76 1    
    36   17   77 1    
    37   18   19 1    
    38   18   27 1    
    39   18   78 1    
    40   19   20 am   BACKBONE|DICT|INTERRES
    41   19   79 1    
    42   20   21 2    
    43   20   22 1    
    44   22   23 1    
    45   22   24 1    
    46   22   80 1    
    47   23   81 1    
    48   23   82 1    
    49   23   83 1    
    50   24   25 am   BACKBONE|DICT|INTERRES
    51   24   84 1    
    52   25   26 2    
    53   27   28 2    
    54   27   29 am   BACKBONE|DICT|INTERRES
    55   29   30 1    
    56   29   85 1    
    57   30   31 1    
    58   30   32 1    
    59   30   86 1    
    60   31   87 1    
    61   31   88 1    
    62   31   89 1    
    63   32   33 2    
    64   32   34 am   BACKBONE|DICT|INTERRES
    65   34   35 1    
    66   34   90 1    
    67   35   36 1    
    68   35   37 1    
    69   35   91 1    
    70   36   92 1    
    71   36   93 1    
    72   36   94 1    
    73   37   38 2    
    74   37   39 am   BACKBONE|DICT|INTERRES
    75   39   40 1    
    76   39   95 1    
    77   40   41 1    
    78   40   42 1    
    79   40   96 1    
    80   41   97 1    
    81   41   98 1    
    82   41   99 1    
    83   42   43 2    
    84   42   44 am   BACKBONE|DICT|INTERRES
    85   44   45 1    
    86   44  100 1    
    87   45   46 1    
    88   45   47 1    
    89   45  101 1    
    90   46  102 1    
    91   46  103 1    
    92   46  104 1    
    93   47   48 2    
    94   47   49 am   BACKBONE|DICT|INTERRES
    95   49   50 1    
    96   49  105 1    
    97   50   51 1    
    98   50   52 1    
    99   50  106 1    
   100   51  107 1    
   101   51  108 1    
   102   51  109 1    
   103   52   53 2    
   104   52   54 am   BACKBONE|DICT|INTERRES
   105   54   55 1    
   106   54  110 1    
   107   55   56 1    
   108   55   59 1    
   109   55  111 1    
   110   56   57 am   BACKBONE|DICT|INTERRES
   111   56   58 2    
   112   57  112 1    
   113   57  113 1    
   114   59   60 1    
   115   59  114 1    
   116   59  115 1    
   117   60   61 1    
   118   61  116 1    
   119   61  117 1    
@<TRIPOS>SUBSTRUCTURE
     1 UNK         1 GROUP             0       ****    0 ROOT    
