@<TRIPOS>MOLECULE
3R8
117   119    1
SMALL
USER_CHARGES


@<TRIPOS>ATOM
      1 CA         15.0101  -30.6246  -42.5123 C.3       0 UNK        -0.2013 
      2 C          15.1418  -29.1443  -42.1871 C.2       0 UNK         0.4866 
      3 O          15.0460  -28.7627  -41.0210 O.2       0 UNK        -0.5176 
      4 N          15.3635  -28.3061  -43.2100 N.am      1 UNK        -0.4884 
      5 CA         15.5416  -26.8525  -43.0868 C.3       1 UNK         0.0853 
      6 C6         15.2436  -26.1207  -44.4247 C.3       10 UNK        -0.0849 
      7 S7         16.6079  -26.0284  -45.6387 S.3       10 UNK        -0.2776 
      8 C8         16.5174  -27.6354  -46.4874 C.3       10 UNK         0.0316 
      9 C9         17.7517  -28.4717  -46.1847 C.ar      10 UNK        -0.0863 
     10 C10        17.6786  -29.5968  -45.3558 C.ar      10 UNK        -0.1009 
     11 C11        18.8209  -30.3570  -45.0903 C.ar      10 UNK        -0.0712 
     12 C12        20.0328  -30.0022  -45.6845 C.ar      10 UNK        -0.0894 
     13 C13        20.1230  -28.8770  -46.5060 C.ar      10 UNK        -0.0745 
     14 C14        18.9788  -28.1158  -46.7531 C.ar      10 UNK        -0.0972 
     15 C15        21.4533  -28.5003  -47.1380 C.3       10 UNK         0.0209 
     16 S16        22.6295  -27.8539  -45.9106 S.3       10 UNK        -0.2568 
     17 C17        21.9380  -26.2038  -45.5289 C.3       10 UNK        -0.0983 
     18 CA         21.7490  -25.8860  -44.0206 C.3       3 UNK         0.0876 
     19 N          20.6334  -26.6250  -43.4194 N.am      3 UNK        -0.4424 
     20 C          20.0722  -26.2772  -42.2517 C.2       2 UNK         0.4918 
     21 O          20.3039  -25.2107  -41.6765 O.2       2 UNK        -0.4875 
     22 CA         19.1119  -27.2976  -41.6189 C.3       2 UNK         0.0481 
     23 CB         18.8874  -27.0452  -40.1110 C.3       2 UNK        -0.1831 
     24 N          17.8289  -27.3884  -42.3203 N.am      2 UNK        -0.4498 
     25 C          16.8836  -26.4393  -42.4337 C.2       1 UNK         0.5027 
     26 O          17.0085  -25.2844  -42.0234 O.2       1 UNK        -0.4969 
     27 C          23.0420  -26.1045  -43.2012 C.2       3 UNK         0.5005 
     28 O          23.2010  -27.1556  -42.5727 O.2       3 UNK        -0.5279 
     29 N          23.9664  -25.1353  -43.2539 N.am      4 UNK        -0.4463 
     30 CA         25.2340  -25.1454  -42.5095 C.3       4 UNK         0.0283 
     31 CB         25.9731  -23.8187  -42.7473 C.3       4 UNK        -0.1875 
     32 C          26.1599  -26.3367  -42.8244 C.2       4 UNK         0.4949 
     33 O          26.9506  -26.7263  -41.9654 O.2       4 UNK        -0.5039 
     34 N          26.0396  -26.8993  -44.0345 N.am      5 UNK        -0.4663 
     35 CA         26.7745  -28.0880  -44.4701 C.3       5 UNK         0.0242 
     36 CB         26.7473  -28.1584  -46.0057 C.3       5 UNK        -0.1982 
     37 C          26.2333  -29.3967  -43.8655 C.2       5 UNK         0.5017 
     38 O          27.0015  -30.3510  -43.7374 O.2       5 UNK        -0.5012 
     39 N          24.9367  -29.4313  -43.5279 N.am      6 UNK        -0.4439 
     40 CA         24.2439  -30.6131  -43.0072 C.3       6 UNK         0.0297 
     41 CB         22.9001  -30.7573  -43.7285 C.3       6 UNK        -0.2006 
     42 C          24.0191  -30.5506  -41.4912 C.2       6 UNK         0.4892 
     43 O          23.9041  -31.6077  -40.8681 O.2       6 UNK        -0.5089 
     44 N          23.9501  -29.3340  -40.9293 N.am      7 UNK        -0.4243 
     45 CA         23.7284  -29.0185  -39.5167 C.3       7 UNK         0.0196 
     46 CB         24.9511  -29.4260  -38.6632 C.3       7 UNK        -0.2007 
     47 C          22.3924  -29.5975  -39.0201 C.2       7 UNK         0.5020 
     48 O          21.3451  -29.0293  -39.3205 O.2       7 UNK        -0.5147 
     49 N          22.4417  -30.7166  -38.2879 N.am      8 UNK        -0.4734 
     50 CA         21.2684  -31.4245  -37.7698 C.3       8 UNK         0.0238 
     51 CB         21.7208  -32.3687  -36.6428 C.3       8 UNK        -0.1912 
     52 C          20.4725  -32.2031  -38.8369 C.2       8 UNK         0.5038 
     53 O          19.3560  -32.6267  -38.5330 O.2       8 UNK        -0.5046 
     54 N          21.0502  -32.3993  -40.0330 N.am      9 UNK        -0.4200 
     55 CA         20.5361  -33.2474  -41.1253 C.3       9 UNK         0.0839 
     56 C          20.5759  -34.7694  -40.7847 C.2       9 UNK         0.5513 
     57 N          20.1694  -35.6284  -41.7104 N.am      9 UNK        -0.7519 
     58 O          21.0058  -35.1952  -39.7140 O.2       9 UNK        -0.4960 
     59 C59        19.1502  -32.7851  -41.6773 C.3       10 UNK        -0.0876 
     60 S60        19.2073  -31.1402  -42.4674 S.3       10 UNK        -0.2414 
     61 C61        18.7535  -31.5707  -44.1773 C.3       10 UNK         0.0169 
     62 H62        15.9078  -31.1574  -42.1983 H         1 UNK         0.0903 
     63 H63        14.1585  -31.0517  -41.9828 H         1 UNK         0.0903 
     64 H64        14.8619  -30.7986  -43.5779 H         1 UNK         0.0903 
     65 H65        15.4025  -28.6683  -44.1497 H         1 UNK         0.3096 
     66 H66        14.7759  -26.5174  -42.3826 H         1 UNK         0.1121 
     67 H67        14.3577  -26.5408  -44.9039 H         1 UNK         0.0849 
     68 H68        14.9720  -25.0881  -44.1978 H         1 UNK         0.0849 
     69 H69        15.6036  -28.1674  -46.2214 H         1 UNK         0.0865 
     70 H70        16.4584  -27.4606  -47.5628 H         1 UNK         0.0865 
     71 H71        16.7361  -29.8957  -44.9249 H         1 UNK         0.1346 
     72 H72        20.9093  -30.6047  -45.5073 H         1 UNK         0.1412 
     73 H73        19.0387  -27.2445  -47.3913 H         1 UNK         0.1426 
     74 H74        21.3185  -27.7664  -47.9341 H         1 UNK         0.0716 
     75 H75        21.8879  -29.3838  -47.6076 H         1 UNK         0.0716 
     76 H76        20.9868  -26.0756  -46.0471 H         1 UNK         0.0695 
     77 H77        22.6063  -25.4658  -45.9757 H         1 UNK         0.0695 
     78 H78        21.5001  -24.8245  -43.9503 H         1 UNK         0.0983 
     79 H79        20.4148  -27.5197  -43.8337 H         1 UNK         0.3095 
     80 H80        19.5918  -28.2725  -41.7122 H         1 UNK         0.0454 
     81 H81        18.3334  -27.8644  -39.6529 H         1 UNK         0.0851 
     82 H82        18.3430  -26.1207  -39.9198 H         1 UNK         0.0851 
     83 H83        19.8378  -26.9619  -39.5842 H         1 UNK         0.0851 
     84 H84        17.6200  -28.2901  -42.7242 H         1 UNK         0.2976 
     85 H85        23.7776  -24.3110  -43.8071 H         1 UNK         0.3116 
     86 H86        24.9840  -25.2090  -41.4482 H         1 UNK         0.0646 
     87 H87        26.2235  -23.6783  -43.7996 H         1 UNK         0.0847 
     88 H88        26.9071  -23.7858  -42.1842 H         1 UNK         0.0847 
     89 H89        25.3755  -22.9657  -42.4255 H         1 UNK         0.0847 
     90 H90        25.3652  -26.5133  -44.6796 H         1 UNK         0.3040 
     91 H91        27.8150  -27.9877  -44.1518 H         1 UNK         0.1015 
     92 H92        25.7305  -28.2546  -46.3886 H         1 UNK         0.0786 
     93 H93        27.3134  -29.0184  -46.3666 H         1 UNK         0.0786 
     94 H94        27.1927  -27.2692  -46.4523 H         1 UNK         0.0786 
     95 H95        24.3860  -28.5847  -43.6168 H         1 UNK         0.3172 
     96 H96        24.8282  -31.5123  -43.2136 H         1 UNK         0.0595 
     97 H97        22.2486  -29.9018  -43.5424 H         1 UNK         0.0839 
     98 H98        22.3690  -31.6506  -43.4004 H         1 UNK         0.0839 
     99 H99        23.0504  -30.8456  -44.8042 H         1 UNK         0.0839 
    100 H100       23.9140  -28.5305  -41.5532 H         1 UNK         0.2998 
    101 H101       23.6321  -27.9331  -39.4573 H         1 UNK         0.0822 
    102 H102       25.8422  -28.8855  -38.9830 H         1 UNK         0.0787 
    103 H103       24.7924  -29.1863  -37.6109 H         1 UNK         0.0787 
    104 H104       25.1751  -30.4909  -38.7310 H         1 UNK         0.0787 
    105 H105       23.3441  -31.1417  -38.1259 H         1 UNK         0.3055 
    106 H106       20.5855  -30.6860  -37.3433 H         1 UNK         0.1106 
    107 H107       20.8678  -32.8823  -36.1968 H         1 UNK         0.0828 
    108 H108       22.4049  -33.1351  -37.0097 H         1 UNK         0.0828 
    109 H109       22.2214  -31.8234  -35.8426 H         1 UNK         0.0828 
    110 H110       21.9873  -32.0376  -40.1714 H         1 UNK         0.2931 
    111 H111       21.2653  -33.1314  -41.9268 H         1 UNK         0.0412 
    112 H112       20.2052  -36.6151  -41.5061 H         1 UNK         0.3472 
    113 H113       19.8492  -35.3183  -42.6141 H         1 UNK         0.3472 
    114 H114       18.3992  -32.7630  -40.8877 H         1 UNK         0.0970 
    115 H115       18.7658  -33.4966  -42.4083 H         1 UNK         0.0970 
    116 H116       17.7495  -31.9976  -44.1889 H         1 UNK         0.0612 
    117 H117       19.4266  -32.3467  -44.5452 H         1 UNK         0.0612 
@<TRIPOS>BOND
     1    1    2 1    
     2    1   62 1    
     3    1   63 1    
     4    1   64 1    
     5    2    3 2    
     6    2    4 am   BACKBONE|DICT|INTERRES
     7    4    5 1    
     8    4   65 1    
     9    5    6 1    
    10    5   25 1    
    11    5   66 1    
    12    6    7 1    
    13    6   67 1    
    14    6   68 1    
    15    7    8 1    
    16    8    9 1    
    17    8   69 1    
    18    8   70 1    
    19    9   10 ar   
    20    9   14 ar   
    21   10   11 ar   
    22   10   71 1    
    23   11   12 ar   
    24   11   61 1    
    25   12   13 ar   
    26   12   72 1    
    27   13   14 ar   
    28   13   15 1    
    29   14   73 1    
    30   15   16 1    
    31   15   74 1    
    32   15   75 1    
    33   16   17 1    
    34   17   18 1    
    35   17   76 1    
    36   17   77 1    
    37   18   19 1    
    38   18   27 1    
    39   18   78 1    
    40   19   20 am   BACKBONE|DICT|INTERRES
    41   19   79 1    
    42   20   21 2    
    43   20   22 1    
    44   22   23 1    
    45   22   24 1    
    46   22   80 1    
    47   23   81 1    
    48   23   82 1    
    49   23   83 1    
    50   24   25 am   BACKBONE|DICT|INTERRES
    51   24   84 1    
    52   25   26 2    
    53   27   28 2    
    54   27   29 am   BACKBONE|DICT|INTERRES
    55   29   30 1    
    56   29   85 1    
    57   30   31 1    
    58   30   32 1    
    59   30   86 1    
    60   31   87 1    
    61   31   88 1    
    62   31   89 1    
    63   32   33 2    
    64   32   34 am   BACKBONE|DICT|INTERRES
    65   34   35 1    
    66   34   90 1    
    67   35   36 1    
    68   35   37 1    
    69   35   91 1    
    70   36   92 1    
    71   36   93 1    
    72   36   94 1    
    73   37   38 2    
    74   37   39 am   BACKBONE|DICT|INTERRES
    75   39   40 1    
    76   39   95 1    
    77   40   41 1    
    78   40   42 1    
    79   40   96 1    
    80   41   97 1    
    81   41   98 1    
    82   41   99 1    
    83   42   43 2    
    84   42   44 am   BACKBONE|DICT|INTERRES
    85   44   45 1    
    86   44  100 1    
    87   45   46 1    
    88   45   47 1    
    89   45  101 1    
    90   46  102 1    
    91   46  103 1    
    92   46  104 1    
    93   47   48 2    
    94   47   49 am   BACKBONE|DICT|INTERRES
    95   49   50 1    
    96   49  105 1    
    97   50   51 1    
    98   50   52 1    
    99   50  106 1    
   100   51  107 1    
   101   51  108 1    
   102   51  109 1    
   103   52   53 2    
   104   52   54 am   BACKBONE|DICT|INTERRES
   105   54   55 1    
   106   54  110 1    
   107   55   56 1    
   108   55   59 1    
   109   55  111 1    
   110   56   57 am   BACKBONE|DICT|INTERRES
   111   56   58 2    
   112   57  112 1    
   113   57  113 1    
   114   59   60 1    
   115   59  114 1    
   116   59  115 1    
   117   60   61 1    
   118   61  116 1    
   119   61  117 1    
@<TRIPOS>SUBSTRUCTURE
     1 UNK         1 GROUP             0       ****    0 ROOT    
