@<TRIPOS>MOLECULE
3R8
117   119    1
SMALL
USER_CHARGES


@<TRIPOS>ATOM
      1 CA         13.3938  -23.8130  -42.3528 C.3       0 UNK        -0.2013 
      2 C          14.3232  -23.9804  -43.5459 C.2       0 UNK         0.4866 
      3 O          14.5637  -23.0166  -44.2741 O.2       0 UNK        -0.5176 
      4 N          14.8403  -25.1974  -43.7566 N.am      1 UNK        -0.4884 
      5 CA         15.8082  -25.5196  -44.8107 C.3       1 UNK         0.0853 
      6 C6         15.8207  -27.0436  -45.1093 C.3       10 UNK        -0.0849 
      7 S7         16.2873  -27.4148  -46.8361 S.3       10 UNK        -0.2776 
      8 C8         16.4835  -29.2287  -46.7949 C.3       10 UNK         0.0316 
      9 C9         17.7211  -29.6496  -46.0143 C.ar      10 UNK        -0.0863 
     10 C10        17.6030  -30.1224  -44.7047 C.ar      10 UNK        -0.1009 
     11 C11        18.7365  -30.4591  -43.9586 C.ar      10 UNK        -0.0712 
     12 C12        20.0019  -30.3111  -44.5432 C.ar      10 UNK        -0.0894 
     13 C13        20.1369  -29.8609  -45.8608 C.ar      10 UNK        -0.0745 
     14 C14        18.9880  -29.5478  -46.5955 C.ar      10 UNK        -0.0972 
     15 C15        21.5183  -29.7088  -46.4911 C.3       10 UNK         0.0209 
     16 S16        21.8294  -28.0089  -47.0789 S.3       10 UNK        -0.2568 
     17 C17        23.0990  -27.3801  -45.9232 C.3       10 UNK        -0.0983 
     18 CA         22.6125  -26.7137  -44.5967 C.3       3 UNK         0.0876 
     19 N          21.5939  -25.6596  -44.7811 N.am      3 UNK        -0.4424 
     20 C          20.2712  -25.8022  -44.9579 C.2       2 UNK         0.4918 
     21 O          19.6739  -26.8677  -44.8251 O.2       2 UNK        -0.4875 
     22 CA         19.4892  -24.5330  -45.3565 C.3       2 UNK         0.0481 
     23 CB         19.9869  -23.9811  -46.7049 C.3       2 UNK        -0.1831 
     24 N          18.0537  -24.8039  -45.4748 N.am      2 UNK        -0.4498 
     25 C          17.2176  -24.9979  -44.4473 C.2       1 UNK         0.5027 
     26 O          17.5292  -24.8153  -43.2659 O.2       1 UNK        -0.4969 
     27 C          22.3878  -27.7253  -43.4444 C.2       3 UNK         0.5005 
     28 O          23.1131  -28.7200  -43.3678 O.2       3 UNK        -0.5279 
     29 N          21.4556  -27.4409  -42.5237 N.am      4 UNK        -0.4463 
     30 CA         21.0872  -28.3125  -41.4044 C.3       4 UNK         0.0283 
     31 CB         19.8658  -27.7298  -40.6772 C.3       4 UNK        -0.1875 
     32 C          22.2324  -28.5805  -40.4174 C.2       4 UNK         0.4949 
     33 O          22.3716  -29.7080  -39.9439 O.2       4 UNK        -0.5039 
     34 N          23.0456  -27.5507  -40.1490 N.am      5 UNK        -0.4663 
     35 CA         24.2312  -27.6429  -39.2937 C.3       5 UNK         0.0242 
     36 CB         24.6206  -26.2353  -38.8143 C.3       5 UNK        -0.1982 
     37 C          25.4216  -28.3203  -39.9939 C.2       5 UNK         0.5017 
     38 O          26.2401  -28.9408  -39.3163 O.2       5 UNK        -0.5012 
     39 N          25.4981  -28.1906  -41.3264 N.am      6 UNK        -0.4439 
     40 CA         26.5480  -28.7783  -42.1612 C.3       6 UNK         0.0297 
     41 CB         26.6159  -28.0444  -43.5107 C.3       6 UNK        -0.2006 
     42 C          26.3357  -30.2854  -42.3640 C.2       6 UNK         0.4892 
     43 O          27.2888  -31.0542  -42.2346 O.2       6 UNK        -0.5089 
     44 N          25.0875  -30.6795  -42.6519 N.am      7 UNK        -0.4243 
     45 CA         24.6691  -32.0785  -42.7711 C.3       7 UNK         0.0196 
     46 CB         23.3453  -32.1333  -43.5438 C.3       7 UNK        -0.2007 
     47 C          24.5135  -32.7820  -41.4109 C.2       7 UNK         0.5020 
     48 O          24.5134  -34.0126  -41.3763 O.2       7 UNK        -0.5147 
     49 N          24.3740  -31.9951  -40.3330 N.am      8 UNK        -0.4734 
     50 CA         24.1171  -32.4037  -38.9481 C.3       8 UNK         0.0238 
     51 CB         25.2960  -33.2202  -38.3760 C.3       8 UNK        -0.1912 
     52 C          22.7559  -33.1098  -38.8117 C.2       8 UNK         0.5038 
     53 O          22.6865  -34.2405  -38.3247 O.2       8 UNK        -0.5046 
     54 N          21.6991  -32.4210  -39.2626 N.am      9 UNK        -0.4200 
     55 CA         20.3028  -32.8866  -39.2094 C.3       9 UNK         0.0839 
     56 C          19.7092  -32.9984  -37.7739 C.2       9 UNK         0.5513 
     57 N          20.2941  -32.3730  -36.7588 N.am      9 UNK        -0.7519 
     58 O          18.6969  -33.6666  -37.5807 O.2       9 UNK        -0.4960 
     59 C59        19.3705  -32.0285  -40.1037 C.3       10 UNK        -0.0876 
     60 S60        19.8372  -32.0299  -41.8659 S.3       10 UNK        -0.2414 
     61 C61        18.5492  -30.9074  -42.5092 C.3       10 UNK         0.0169 
     62 H62        13.2572  -24.7465  -41.8071 H         1 UNK         0.0903 
     63 H63        13.7995  -23.0735  -41.6628 H         1 UNK         0.0903 
     64 H64        12.4148  -23.4684  -42.6848 H         1 UNK         0.0903 
     65 H65        14.6389  -25.9406  -43.1027 H         1 UNK         0.3096 
     66 H66        15.4821  -24.9928  -45.7110 H         1 UNK         0.1121 
     67 H67        16.4810  -27.5728  -44.4196 H         1 UNK         0.0849 
     68 H68        14.8267  -27.4680  -44.9580 H         1 UNK         0.0849 
     69 H69        15.5849  -29.6836  -46.3750 H         1 UNK         0.0865 
     70 H70        16.5598  -29.5985  -47.8185 H         1 UNK         0.0865 
     71 H71        16.6233  -30.2021  -44.2535 H         1 UNK         0.1346 
     72 H72        20.8889  -30.5266  -43.9692 H         1 UNK         0.1412 
     73 H73        19.0845  -29.1812  -47.6082 H         1 UNK         0.1426 
     74 H74        21.5913  -30.3903  -47.3394 H         1 UNK         0.0716 
     75 H75        22.3002  -30.0062  -45.7920 H         1 UNK         0.0716 
     76 H76        23.8303  -28.1683  -45.7377 H         1 UNK         0.0695 
     77 H77        23.6545  -26.6289  -46.4863 H         1 UNK         0.0695 
     78 H78        23.4773  -26.1562  -44.2332 H         1 UNK         0.0983 
     79 H79        21.9721  -24.7273  -44.8704 H         1 UNK         0.3095 
     80 H80        19.6437  -23.7761  -44.5849 H         1 UNK         0.0454 
     81 H81        21.0309  -23.6713  -46.6509 H         1 UNK         0.0851 
     82 H82        19.9109  -24.7275  -47.4971 H         1 UNK         0.0851 
     83 H83        19.4129  -23.1068  -47.0126 H         1 UNK         0.0851 
     84 H84        17.7278  -25.0555  -46.3973 H         1 UNK         0.2976 
     85 H85        20.8774  -26.6279  -42.6796 H         1 UNK         0.3116 
     86 H86        20.8069  -29.2743  -41.8309 H         1 UNK         0.0646 
     87 H87        19.5447  -28.3853  -39.8666 H         1 UNK         0.0847 
     88 H88        19.0193  -27.6138  -41.3547 H         1 UNK         0.0847 
     89 H89        20.0812  -26.7537  -40.2412 H         1 UNK         0.0847 
     90 H90        22.8452  -26.6550  -40.5704 H         1 UNK         0.3040 
     91 H91        23.9818  -28.2449  -38.4164 H         1 UNK         0.1015 
     92 H92        23.8100  -25.7688  -38.2541 H         1 UNK         0.0786 
     93 H93        24.8760  -25.5787  -39.6471 H         1 UNK         0.0786 
     94 H94        25.4876  -26.2749  -38.1531 H         1 UNK         0.0786 
     95 H95        24.7469  -27.7138  -41.8026 H         1 UNK         0.3172 
     96 H96        27.5068  -28.6393  -41.6567 H         1 UNK         0.0595 
     97 H97        27.4183  -28.4471  -44.1304 H         1 UNK         0.0839 
     98 H98        26.8158  -26.9814  -43.3754 H         1 UNK         0.0839 
     99 H99        25.6900  -28.1431  -44.0771 H         1 UNK         0.0839 
    100 H100       24.3678  -29.9730  -42.7974 H         1 UNK         0.2998 
    101 H101       25.4246  -32.6227  -43.3420 H         1 UNK         0.0822 
    102 H102       23.4431  -31.6888  -44.5336 H         1 UNK         0.0787 
    103 H103       23.0069  -33.1616  -43.6780 H         1 UNK         0.0787 
    104 H104       22.5640  -31.5993  -43.0049 H         1 UNK         0.0787 
    105 H105       24.3346  -30.9984  -40.4987 H         1 UNK         0.3055 
    106 H106       24.0450  -31.4840  -38.3646 H         1 UNK         0.1106 
    107 H107       25.4117  -34.1810  -38.8781 H         1 UNK         0.0828 
    108 H108       26.2360  -32.6765  -38.4710 H         1 UNK         0.0828 
    109 H109       25.1462  -33.4266  -37.3157 H         1 UNK         0.0828 
    110 H110       21.8530  -31.4874  -39.6355 H         1 UNK         0.2931 
    111 H111       20.2966  -33.9004  -39.6146 H         1 UNK         0.0412 
    112 H112       21.1202  -31.8165  -36.9083 H         1 UNK         0.3472 
    113 H113       19.9009  -32.4560  -35.8343 H         1 UNK         0.3472 
    114 H114       18.3419  -32.3893  -40.0380 H         1 UNK         0.0970 
    115 H115       19.3564  -30.9971  -39.7465 H         1 UNK         0.0970 
    116 H116       17.5872  -31.4108  -42.4010 H         1 UNK         0.0612 
    117 H117       18.5013  -30.0170  -41.8831 H         1 UNK         0.0612 
@<TRIPOS>BOND
     1    1    2 1    
     2    1   62 1    
     3    1   63 1    
     4    1   64 1    
     5    2    3 2    
     6    2    4 am   BACKBONE|DICT|INTERRES
     7    4    5 1    
     8    4   65 1    
     9    5    6 1    
    10    5   25 1    
    11    5   66 1    
    12    6    7 1    
    13    6   67 1    
    14    6   68 1    
    15    7    8 1    
    16    8    9 1    
    17    8   69 1    
    18    8   70 1    
    19    9   10 ar   
    20    9   14 ar   
    21   10   11 ar   
    22   10   71 1    
    23   11   12 ar   
    24   11   61 1    
    25   12   13 ar   
    26   12   72 1    
    27   13   14 ar   
    28   13   15 1    
    29   14   73 1    
    30   15   16 1    
    31   15   74 1    
    32   15   75 1    
    33   16   17 1    
    34   17   18 1    
    35   17   76 1    
    36   17   77 1    
    37   18   19 1    
    38   18   27 1    
    39   18   78 1    
    40   19   20 am   BACKBONE|DICT|INTERRES
    41   19   79 1    
    42   20   21 2    
    43   20   22 1    
    44   22   23 1    
    45   22   24 1    
    46   22   80 1    
    47   23   81 1    
    48   23   82 1    
    49   23   83 1    
    50   24   25 am   BACKBONE|DICT|INTERRES
    51   24   84 1    
    52   25   26 2    
    53   27   28 2    
    54   27   29 am   BACKBONE|DICT|INTERRES
    55   29   30 1    
    56   29   85 1    
    57   30   31 1    
    58   30   32 1    
    59   30   86 1    
    60   31   87 1    
    61   31   88 1    
    62   31   89 1    
    63   32   33 2    
    64   32   34 am   BACKBONE|DICT|INTERRES
    65   34   35 1    
    66   34   90 1    
    67   35   36 1    
    68   35   37 1    
    69   35   91 1    
    70   36   92 1    
    71   36   93 1    
    72   36   94 1    
    73   37   38 2    
    74   37   39 am   BACKBONE|DICT|INTERRES
    75   39   40 1    
    76   39   95 1    
    77   40   41 1    
    78   40   42 1    
    79   40   96 1    
    80   41   97 1    
    81   41   98 1    
    82   41   99 1    
    83   42   43 2    
    84   42   44 am   BACKBONE|DICT|INTERRES
    85   44   45 1    
    86   44  100 1    
    87   45   46 1    
    88   45   47 1    
    89   45  101 1    
    90   46  102 1    
    91   46  103 1    
    92   46  104 1    
    93   47   48 2    
    94   47   49 am   BACKBONE|DICT|INTERRES
    95   49   50 1    
    96   49  105 1    
    97   50   51 1    
    98   50   52 1    
    99   50  106 1    
   100   51  107 1    
   101   51  108 1    
   102   51  109 1    
   103   52   53 2    
   104   52   54 am   BACKBONE|DICT|INTERRES
   105   54   55 1    
   106   54  110 1    
   107   55   56 1    
   108   55   59 1    
   109   55  111 1    
   110   56   57 am   BACKBONE|DICT|INTERRES
   111   56   58 2    
   112   57  112 1    
   113   57  113 1    
   114   59   60 1    
   115   59  114 1    
   116   59  115 1    
   117   60   61 1    
   118   61  116 1    
   119   61  117 1    
@<TRIPOS>SUBSTRUCTURE
     1 UNK         1 GROUP             0       ****    0 ROOT    
