@<TRIPOS>MOLECULE
3R8
117   119    1
SMALL
USER_CHARGES


@<TRIPOS>ATOM
      1 CA         17.8277  -26.5970  -38.7723 C.3       0 UNK        -0.2013 
      2 C          17.4842  -26.0362  -40.1450 C.2       0 UNK         0.4866 
      3 O          16.9432  -24.9337  -40.2393 O.2       0 UNK        -0.5176 
      4 N          17.7886  -26.7904  -41.2051 N.am      1 UNK        -0.4884 
      5 CA         17.5829  -26.4126  -42.6052 C.3       1 UNK         0.0853 
      6 C6         17.2294  -27.6501  -43.4694 C.3       10 UNK        -0.0849 
      7 S7         15.7386  -28.5229  -42.8728 S.3       10 UNK        -0.2776 
      8 C8         15.3024  -29.5525  -44.3131 C.3       10 UNK         0.0316 
      9 C9         16.4915  -30.3473  -44.8357 C.ar      10 UNK        -0.0863 
     10 C10        17.0837  -31.3384  -44.0463 C.ar      10 UNK        -0.1009 
     11 C11        18.2031  -32.0388  -44.5066 C.ar      10 UNK        -0.0712 
     12 C12        18.7157  -31.7544  -45.7763 C.ar      10 UNK        -0.0894 
     13 C13        18.1395  -30.7569  -46.5685 C.ar      10 UNK        -0.0745 
     14 C14        17.0200  -30.0659  -46.0987 C.ar      10 UNK        -0.0972 
     15 C15        18.7512  -30.3950  -47.9139 C.3       10 UNK         0.0209 
     16 S16        19.5623  -28.7628  -47.8705 S.3       10 UNK        -0.2568 
     17 C17        20.8486  -29.0319  -46.6044 C.3       10 UNK        -0.0983 
     18 CA         21.5903  -27.7281  -46.2237 C.3       3 UNK         0.0876 
     19 N          20.6802  -26.7157  -45.6860 N.am      3 UNK        -0.4424 
     20 C          20.9594  -25.4102  -45.5820 C.2       2 UNK         0.4918 
     21 O          22.0369  -24.9170  -45.9176 O.2       2 UNK        -0.4875 
     22 CA         19.8435  -24.4789  -45.0635 C.3       2 UNK         0.0481 
     23 CB         19.2589  -23.6556  -46.2233 C.3       2 UNK        -0.1831 
     24 N          18.7476  -25.1712  -44.3747 N.am      2 UNK        -0.4498 
     25 C          18.8418  -25.7002  -43.1468 C.2       1 UNK         0.5027 
     26 O          19.8717  -25.6449  -42.4708 O.2       1 UNK        -0.4969 
     27 C          22.7298  -28.0293  -45.2297 C.2       3 UNK         0.5005 
     28 O          22.4613  -28.5330  -44.1360 O.2       3 UNK        -0.5279 
     29 N          23.9730  -27.7622  -45.6609 N.am      4 UNK        -0.4463 
     30 CA         25.2465  -28.0342  -44.9786 C.3       4 UNK         0.0283 
     31 CB         25.4258  -29.5556  -44.7695 C.3       4 UNK        -0.1875 
     32 C          25.4452  -27.2523  -43.6635 C.2       4 UNK         0.4949 
     33 O          24.5658  -26.5131  -43.2191 O.2       4 UNK        -0.5039 
     34 N          26.6248  -27.4334  -43.0543 N.am      5 UNK        -0.4663 
     35 CA         26.9721  -26.8714  -41.7439 C.3       5 UNK         0.0242 
     36 CB         28.4958  -26.9431  -41.5511 C.3       5 UNK        -0.1982 
     37 C          26.2480  -27.5718  -40.5787 C.2       5 UNK         0.5017 
     38 O          26.0910  -26.9670  -39.5179 O.2       5 UNK        -0.5012 
     39 N          25.8276  -28.8278  -40.7944 N.am      6 UNK        -0.4439 
     40 CA         25.0872  -29.6467  -39.8321 C.3       6 UNK         0.0297 
     41 CB         25.0490  -31.1036  -40.3229 C.3       6 UNK        -0.2006 
     42 C          23.6606  -29.1373  -39.5669 C.2       6 UNK         0.4892 
     43 O          23.1725  -29.2997  -38.4480 O.2       6 UNK        -0.5089 
     44 N          23.0209  -28.5557  -40.5947 N.am      7 UNK        -0.4243 
     45 CA         21.6750  -27.9635  -40.6364 C.3       7 UNK         0.0196 
     46 CB         21.5684  -26.7592  -39.6810 C.3       7 UNK        -0.2007 
     47 C          20.5212  -28.9581  -40.4102 C.2       7 UNK         0.5020 
     48 O          19.5899  -29.0025  -41.2112 O.2       7 UNK        -0.5147 
     49 N          20.5868  -29.7328  -39.3235 N.am      8 UNK        -0.4734 
     50 CA         19.6393  -30.7992  -38.9851 C.3       8 UNK         0.0238 
     51 CB         19.5466  -30.9046  -37.4537 C.3       8 UNK        -0.1912 
     52 C          20.0299  -32.1561  -39.6016 C.2       8 UNK         0.5038 
     53 O          19.2475  -33.1023  -39.5072 O.2       8 UNK        -0.5046 
     54 N          21.2279  -32.2295  -40.1989 N.am      9 UNK        -0.4200 
     55 CA         21.8320  -33.4137  -40.8362 C.3       9 UNK         0.0839 
     56 C          22.2659  -34.5341  -39.8429 C.2       9 UNK         0.5513 
     57 N          22.3675  -34.2659  -38.5465 N.am      9 UNK        -0.7519 
     58 O          22.5477  -35.6570  -40.2537 O.2       9 UNK        -0.4960 
     59 C59        21.0096  -33.9661  -42.0371 C.3       10 UNK        -0.0876 
     60 S60        20.6010  -32.6812  -43.2681 S.3       10 UNK        -0.2414 
     61 C61        18.8634  -33.0924  -43.6283 C.3       10 UNK         0.0169 
     62 H62        18.2384  -27.6046  -38.8342 H         1 UNK         0.0903 
     63 H63        18.5604  -25.9600  -38.2778 H         1 UNK         0.0903 
     64 H64        16.9346  -26.6359  -38.1493 H         1 UNK         0.0903 
     65 H65        18.3011  -27.6617  -41.0845 H         1 UNK         0.3096 
     66 H66        16.7548  -25.7030  -42.6678 H         1 UNK         0.1121 
     67 H67        17.0569  -27.3624  -44.5079 H         1 UNK         0.0849 
     68 H68        18.0600  -28.3600  -43.4794 H         1 UNK         0.0849 
     69 H69        14.5045  -30.2408  -44.0307 H         1 UNK         0.0865 
     70 H70        14.8900  -28.9111  -45.0936 H         1 UNK         0.0865 
     71 H71        16.6843  -31.5438  -43.0624 H         1 UNK         0.1346 
     72 H72        19.5879  -32.2872  -46.1298 H         1 UNK         0.1412 
     73 H73        16.5815  -29.2878  -46.7089 H         1 UNK         0.1426 
     74 H74        17.9700  -30.3838  -48.6752 H         1 UNK         0.0716 
     75 H75        19.4765  -31.1472  -48.2281 H         1 UNK         0.0716 
     76 H76        21.5489  -29.7757  -46.9894 H         1 UNK         0.0695 
     77 H77        20.3908  -29.4695  -45.7153 H         1 UNK         0.0695 
     78 H78        22.0274  -27.3227  -47.1392 H         1 UNK         0.0983 
     79 H79        19.7787  -27.0466  -45.3815 H         1 UNK         0.3095 
     80 H80        20.3046  -23.7840  -44.3584 H         1 UNK         0.0454 
     81 H81        18.7757  -24.2906  -46.9670 H         1 UNK         0.0851 
     82 H82        20.0402  -23.0926  -46.7360 H         1 UNK         0.0851 
     83 H83        18.5244  -22.9326  -45.8682 H         1 UNK         0.0851 
     84 H84        17.8721  -25.2364  -44.8747 H         1 UNK         0.2976 
     85 H85        24.0653  -27.2987  -46.5544 H         1 UNK         0.3116 
     86 H86        26.0267  -27.6945  -45.6616 H         1 UNK         0.0646 
     87 H87        24.7385  -29.9479  -44.0190 H         1 UNK         0.0847 
     88 H88        26.4368  -29.8022  -44.4450 H         1 UNK         0.0847 
     89 H89        25.2514  -30.1042  -45.6952 H         1 UNK         0.0847 
     90 H90        27.3210  -28.0177  -43.4962 H         1 UNK         0.3040 
     91 H91        26.6734  -25.8204  -41.7273 H         1 UNK         0.1015 
     92 H92        28.8584  -27.9718  -41.5638 H         1 UNK         0.0786 
     93 H93        28.7887  -26.5066  -40.5950 H         1 UNK         0.0786 
     94 H94        29.0211  -26.3909  -42.3307 H         1 UNK         0.0786 
     95 H95        26.0255  -29.2410  -41.6932 H         1 UNK         0.3172 
     96 H96        25.6280  -29.6208  -38.8836 H         1 UNK         0.0595 
     97 H97        24.5227  -31.7417  -39.6112 H         1 UNK         0.0839 
     98 H98        26.0540  -31.5112  -40.4340 H         1 UNK         0.0839 
     99 H99        24.5414  -31.1959  -41.2840 H         1 UNK         0.0839 
    100 H100       23.5184  -28.4981  -41.4735 H         1 UNK         0.2998 
    101 H101       21.5618  -27.5838  -41.6535 H         1 UNK         0.0822 
    102 H102       20.6179  -26.2430  -39.8155 H         1 UNK         0.0787 
    103 H103       21.6353  -27.0554  -38.6338 H         1 UNK         0.0787 
    104 H104       22.3572  -26.0325  -39.8758 H         1 UNK         0.0787 
    105 H105       21.4076  -29.6258  -38.7285 H         1 UNK         0.3055 
    106 H106       18.6501  -30.5440  -39.3725 H         1 UNK         0.1106 
    107 H107       18.8315  -31.6726  -37.1556 H         1 UNK         0.0828 
    108 H108       20.5078  -31.1616  -37.0070 H         1 UNK         0.0828 
    109 H109       19.2124  -29.9654  -37.0125 H         1 UNK         0.0828 
    110 H110       21.7819  -31.3879  -40.2249 H         1 UNK         0.2931 
    111 H111       22.7725  -33.0497  -41.2505 H         1 UNK         0.0412 
    112 H112       22.1469  -33.3492  -38.1932 H         1 UNK         0.3472 
    113 H113       22.6594  -34.9945  -37.9139 H         1 UNK         0.3472 
    114 H114       21.5701  -34.7464  -42.5550 H         1 UNK         0.0970 
    115 H115       20.0965  -34.4437  -41.6787 H         1 UNK         0.0970 
    116 H116       18.3215  -33.1957  -42.6866 H         1 UNK         0.0612 
    117 H117       18.8171  -34.0612  -44.1274 H         1 UNK         0.0612 
@<TRIPOS>BOND
     1    1    2 1    
     2    1   62 1    
     3    1   63 1    
     4    1   64 1    
     5    2    3 2    
     6    2    4 am   BACKBONE|DICT|INTERRES
     7    4    5 1    
     8    4   65 1    
     9    5    6 1    
    10    5   25 1    
    11    5   66 1    
    12    6    7 1    
    13    6   67 1    
    14    6   68 1    
    15    7    8 1    
    16    8    9 1    
    17    8   69 1    
    18    8   70 1    
    19    9   10 ar   
    20    9   14 ar   
    21   10   11 ar   
    22   10   71 1    
    23   11   12 ar   
    24   11   61 1    
    25   12   13 ar   
    26   12   72 1    
    27   13   14 ar   
    28   13   15 1    
    29   14   73 1    
    30   15   16 1    
    31   15   74 1    
    32   15   75 1    
    33   16   17 1    
    34   17   18 1    
    35   17   76 1    
    36   17   77 1    
    37   18   19 1    
    38   18   27 1    
    39   18   78 1    
    40   19   20 am   BACKBONE|DICT|INTERRES
    41   19   79 1    
    42   20   21 2    
    43   20   22 1    
    44   22   23 1    
    45   22   24 1    
    46   22   80 1    
    47   23   81 1    
    48   23   82 1    
    49   23   83 1    
    50   24   25 am   BACKBONE|DICT|INTERRES
    51   24   84 1    
    52   25   26 2    
    53   27   28 2    
    54   27   29 am   BACKBONE|DICT|INTERRES
    55   29   30 1    
    56   29   85 1    
    57   30   31 1    
    58   30   32 1    
    59   30   86 1    
    60   31   87 1    
    61   31   88 1    
    62   31   89 1    
    63   32   33 2    
    64   32   34 am   BACKBONE|DICT|INTERRES
    65   34   35 1    
    66   34   90 1    
    67   35   36 1    
    68   35   37 1    
    69   35   91 1    
    70   36   92 1    
    71   36   93 1    
    72   36   94 1    
    73   37   38 2    
    74   37   39 am   BACKBONE|DICT|INTERRES
    75   39   40 1    
    76   39   95 1    
    77   40   41 1    
    78   40   42 1    
    79   40   96 1    
    80   41   97 1    
    81   41   98 1    
    82   41   99 1    
    83   42   43 2    
    84   42   44 am   BACKBONE|DICT|INTERRES
    85   44   45 1    
    86   44  100 1    
    87   45   46 1    
    88   45   47 1    
    89   45  101 1    
    90   46  102 1    
    91   46  103 1    
    92   46  104 1    
    93   47   48 2    
    94   47   49 am   BACKBONE|DICT|INTERRES
    95   49   50 1    
    96   49  105 1    
    97   50   51 1    
    98   50   52 1    
    99   50  106 1    
   100   51  107 1    
   101   51  108 1    
   102   51  109 1    
   103   52   53 2    
   104   52   54 am   BACKBONE|DICT|INTERRES
   105   54   55 1    
   106   54  110 1    
   107   55   56 1    
   108   55   59 1    
   109   55  111 1    
   110   56   57 am   BACKBONE|DICT|INTERRES
   111   56   58 2    
   112   57  112 1    
   113   57  113 1    
   114   59   60 1    
   115   59  114 1    
   116   59  115 1    
   117   60   61 1    
   118   61  116 1    
   119   61  117 1    
@<TRIPOS>SUBSTRUCTURE
     1 UNK         1 GROUP             0       ****    0 ROOT    
