@<TRIPOS>MOLECULE
3R8
117   119    1
SMALL
USER_CHARGES


@<TRIPOS>ATOM
      1 CA         19.1370  -27.0650  -50.5826 C.3       0 UNK        -0.2013 
      2 C          19.8163  -26.7802  -49.2513 C.2       0 UNK         0.4866 
      3 O          20.7863  -26.0224  -49.2082 O.2       0 UNK        -0.5176 
      4 N          19.3216  -27.3888  -48.1666 N.am      1 UNK        -0.4884 
      5 CA         19.8200  -27.1988  -46.8007 C.3       1 UNK         0.0853 
      6 C6         19.2396  -28.2493  -45.8247 C.3       10 UNK        -0.0849 
      7 S7         19.6572  -29.9712  -46.2424 S.3       10 UNK        -0.2776 
      8 C8         18.2307  -30.8313  -45.4995 C.3       10 UNK         0.0316 
      9 C9         18.0551  -30.4889  -44.0234 C.ar      10 UNK        -0.0863 
     10 C10        19.0210  -30.8738  -43.0904 C.ar      10 UNK        -0.1009 
     11 C11        18.8649  -30.5698  -41.7362 C.ar      10 UNK        -0.0712 
     12 C12        17.7235  -29.8838  -41.3110 C.ar      10 UNK        -0.0894 
     13 C13        16.7583  -29.4690  -42.2371 C.ar      10 UNK        -0.0745 
     14 C14        16.9298  -29.7795  -43.5904 C.ar      10 UNK        -0.0972 
     15 C15        15.5156  -28.7085  -41.7839 C.3       10 UNK         0.0209 
     16 S16        15.8916  -27.2363  -40.7732 S.3       10 UNK        -0.2568 
     17 C17        16.7621  -26.1425  -41.9505 C.3       10 UNK        -0.0983 
     18 CA         18.3052  -26.2338  -41.8075 C.3       3 UNK         0.0876 
     19 N          19.0322  -25.6931  -42.9603 N.am      3 UNK        -0.4424 
     20 C          19.0799  -24.4160  -43.3725 C.2       2 UNK         0.4918 
     21 O          18.4277  -23.4993  -42.8738 O.2       2 UNK        -0.4875 
     22 CA         20.0372  -24.1026  -44.5413 C.3       2 UNK         0.0481 
     23 CB         21.3571  -23.5264  -44.0028 C.3       2 UNK        -0.1831 
     24 N          20.3265  -25.2802  -45.3673 N.am      2 UNK        -0.4498 
     25 C          19.4712  -25.7973  -46.2606 C.2       1 UNK         0.5027 
     26 O          18.4082  -25.2601  -46.5834 O.2       1 UNK        -0.4969 
     27 C          18.8750  -25.6485  -40.4967 C.2       3 UNK         0.5005 
     28 O          18.2251  -24.8542  -39.8131 O.2       3 UNK        -0.5279 
     29 N          20.1196  -26.0378  -40.2059 N.am      4 UNK        -0.4463 
     30 CA         20.8884  -25.6676  -39.0233 C.3       4 UNK         0.0283 
     31 CB         21.6158  -24.3279  -39.2703 C.3       4 UNK        -0.1875 
     32 C          21.8263  -26.8411  -38.6953 C.2       4 UNK         0.4949 
     33 O          21.4689  -27.9911  -38.9625 O.2       4 UNK        -0.5039 
     34 N          23.0075  -26.5487  -38.1369 N.am      5 UNK        -0.4663 
     35 CA         24.0784  -27.5247  -37.9188 C.3       5 UNK         0.0242 
     36 CB         25.1653  -26.8863  -37.0380 C.3       5 UNK        -0.1982 
     37 C          24.6800  -28.0137  -39.2501 C.2       5 UNK         0.5017 
     38 O          24.7053  -27.2543  -40.2226 O.2       5 UNK        -0.5012 
     39 N          25.1787  -29.2577  -39.2486 N.am      6 UNK        -0.4439 
     40 CA         25.7287  -29.9828  -40.3996 C.3       6 UNK         0.0297 
     41 CB         27.0323  -29.3235  -40.9091 C.3       6 UNK        -0.2006 
     42 C          24.6554  -30.2186  -41.4824 C.2       6 UNK         0.4892 
     43 O          23.5791  -30.7151  -41.1466 O.2       6 UNK        -0.5089 
     44 N          24.9671  -29.9034  -42.7493 N.am      7 UNK        -0.4243 
     45 CA         24.1580  -30.1779  -43.9446 C.3       7 UNK         0.0196 
     46 CB         22.8675  -29.3230  -43.9450 C.3       7 UNK        -0.2007 
     47 C          23.9173  -31.6933  -44.1068 C.2       7 UNK         0.5020 
     48 O          24.8368  -32.4771  -43.8587 O.2       7 UNK        -0.5147 
     49 N          22.6973  -32.0982  -44.4859 N.am      8 UNK        -0.4734 
     50 CA         22.2996  -33.5085  -44.5914 C.3       8 UNK         0.0238 
     51 CB         20.9611  -33.6143  -45.3398 C.3       8 UNK        -0.1912 
     52 C          22.2222  -34.2404  -43.2353 C.2       8 UNK         0.5038 
     53 O          22.2092  -35.4720  -43.2276 O.2       8 UNK        -0.5046 
     54 N          22.1809  -33.4881  -42.1265 N.am      9 UNK        -0.4200 
     55 CA         22.2235  -34.0138  -40.7532 C.3       9 UNK         0.0839 
     56 C          23.6618  -34.3545  -40.2627 C.2       9 UNK         0.5513 
     57 N          24.7189  -34.0563  -41.0116 N.am      9 UNK        -0.7519 
     58 O          23.8210  -34.9159  -39.1818 O.2       9 UNK        -0.4960 
     59 C59        21.4894  -33.0889  -39.7430 C.3       10 UNK        -0.0876 
     60 S60        19.7742  -32.7073  -40.2426 S.3       10 UNK        -0.2414 
     61 C61        19.9476  -30.9689  -40.7482 C.3       10 UNK         0.0169 
     62 H62        18.7539  -26.1403  -51.0133 H         1 UNK         0.0903 
     63 H63        19.8507  -27.4976  -51.2832 H         1 UNK         0.0903 
     64 H64        18.3040  -27.7596  -50.4754 H         1 UNK         0.0903 
     65 H65        18.5215  -27.9983  -48.2567 H         1 UNK         0.3096 
     66 H66        20.9075  -27.3020  -46.8240 H         1 UNK         0.1121 
     67 H67        19.6036  -28.0804  -44.8097 H         1 UNK         0.0849 
     68 H68        18.1528  -28.1503  -45.7769 H         1 UNK         0.0849 
     69 H69        17.3326  -30.5780  -46.0650 H         1 UNK         0.0865 
     70 H70        18.3602  -31.9080  -45.6104 H         1 UNK         0.0865 
     71 H71        19.9028  -31.4044  -43.4165 H         1 UNK         0.1346 
     72 H72        17.5950  -29.6541  -40.2620 H         1 UNK         0.1412 
     73 H73        16.1822  -29.4718  -44.3090 H         1 UNK         0.1426 
     74 H74        14.8927  -29.3835  -41.1958 H         1 UNK         0.0716 
     75 H75        14.9106  -28.4011  -42.6383 H         1 UNK         0.0716 
     76 H76        16.4152  -25.1181  -41.8048 H         1 UNK         0.0695 
     77 H77        16.4649  -26.4178  -42.9636 H         1 UNK         0.0695 
     78 H78        18.5581  -27.2941  -41.7969 H         1 UNK         0.0983 
     79 H79        19.6272  -26.3499  -43.4392 H         1 UNK         0.3095 
     80 H80        19.5647  -23.3414  -45.1658 H         1 UNK         0.0454 
     81 H81        21.8819  -24.2377  -43.3637 H         1 UNK         0.0851 
     82 H82        21.1764  -22.6294  -43.4086 H         1 UNK         0.0851 
     83 H83        22.0278  -23.2439  -44.8144 H         1 UNK         0.0851 
     84 H84        21.1967  -25.7595  -45.1823 H         1 UNK         0.2976 
     85 H85        20.5613  -26.7442  -40.7797 H         1 UNK         0.3116 
     86 H86        20.2109  -25.5543  -38.1745 H         1 UNK         0.0646 
     87 H87        22.3749  -24.4186  -40.0486 H         1 UNK         0.0847 
     88 H88        22.1042  -23.9648  -38.3656 H         1 UNK         0.0847 
     89 H89        20.9167  -23.5511  -39.5810 H         1 UNK         0.0847 
     90 H90        23.2406  -25.5794  -37.9793 H         1 UNK         0.3040 
     91 H91        23.6536  -28.3814  -37.3903 H         1 UNK         0.1015 
     92 H92        24.7610  -26.5641  -36.0781 H         1 UNK         0.0786 
     93 H93        25.6181  -26.0192  -37.5209 H         1 UNK         0.0786 
     94 H94        25.9665  -27.5963  -36.8280 H         1 UNK         0.0786 
     95 H95        25.0893  -29.8030  -38.4025 H         1 UNK         0.3172 
     96 H96        25.9932  -30.9746  -40.0297 H         1 UNK         0.0595 
     97 H97        26.8578  -28.3400  -41.3467 H         1 UNK         0.0839 
     98 H98        27.5199  -29.9426  -41.6632 H         1 UNK         0.0839 
     99 H99        27.7479  -29.1971  -40.0967 H         1 UNK         0.0839 
    100 H100       25.8872  -29.5253  -42.9232 H         1 UNK         0.2998 
    101 H101       24.7605  -29.8724  -44.8012 H         1 UNK         0.0822 
    102 H102       22.1641  -29.6342  -43.1718 H         1 UNK         0.0787 
    103 H103       23.0974  -28.2716  -43.7723 H         1 UNK         0.0787 
    104 H104       22.3554  -29.3796  -44.9058 H         1 UNK         0.0787 
    105 H105       21.9951  -31.4026  -44.6944 H         1 UNK         0.3055 
    106 H106       23.0588  -34.0219  -45.1861 H         1 UNK         0.1106 
    107 H107       20.1328  -33.2348  -44.7437 H         1 UNK         0.0828 
    108 H108       20.9813  -33.0687  -46.2835 H         1 UNK         0.0828 
    109 H109       20.7327  -34.6548  -45.5741 H         1 UNK         0.0828 
    110 H110       22.2505  -32.4842  -42.2124 H         1 UNK         0.2931 
    111 H111       21.6835  -34.9626  -40.7509 H         1 UNK         0.0412 
    112 H112       24.6086  -33.5905  -41.9024 H         1 UNK         0.3472 
    113 H113       25.6395  -34.2965  -40.6800 H         1 UNK         0.3472 
    114 H114       21.4430  -33.5688  -38.7638 H         1 UNK         0.0970 
    115 H115       22.0458  -32.1631  -39.5890 H         1 UNK         0.0970 
    116 H116       20.9218  -30.8118  -41.2115 H         1 UNK         0.0612 
    117 H117       19.9226  -30.3299  -39.8640 H         1 UNK         0.0612 
@<TRIPOS>BOND
     1    1    2 1    
     2    1   62 1    
     3    1   63 1    
     4    1   64 1    
     5    2    3 2    
     6    2    4 am   BACKBONE|DICT|INTERRES
     7    4    5 1    
     8    4   65 1    
     9    5    6 1    
    10    5   25 1    
    11    5   66 1    
    12    6    7 1    
    13    6   67 1    
    14    6   68 1    
    15    7    8 1    
    16    8    9 1    
    17    8   69 1    
    18    8   70 1    
    19    9   10 ar   
    20    9   14 ar   
    21   10   11 ar   
    22   10   71 1    
    23   11   12 ar   
    24   11   61 1    
    25   12   13 ar   
    26   12   72 1    
    27   13   14 ar   
    28   13   15 1    
    29   14   73 1    
    30   15   16 1    
    31   15   74 1    
    32   15   75 1    
    33   16   17 1    
    34   17   18 1    
    35   17   76 1    
    36   17   77 1    
    37   18   19 1    
    38   18   27 1    
    39   18   78 1    
    40   19   20 am   BACKBONE|DICT|INTERRES
    41   19   79 1    
    42   20   21 2    
    43   20   22 1    
    44   22   23 1    
    45   22   24 1    
    46   22   80 1    
    47   23   81 1    
    48   23   82 1    
    49   23   83 1    
    50   24   25 am   BACKBONE|DICT|INTERRES
    51   24   84 1    
    52   25   26 2    
    53   27   28 2    
    54   27   29 am   BACKBONE|DICT|INTERRES
    55   29   30 1    
    56   29   85 1    
    57   30   31 1    
    58   30   32 1    
    59   30   86 1    
    60   31   87 1    
    61   31   88 1    
    62   31   89 1    
    63   32   33 2    
    64   32   34 am   BACKBONE|DICT|INTERRES
    65   34   35 1    
    66   34   90 1    
    67   35   36 1    
    68   35   37 1    
    69   35   91 1    
    70   36   92 1    
    71   36   93 1    
    72   36   94 1    
    73   37   38 2    
    74   37   39 am   BACKBONE|DICT|INTERRES
    75   39   40 1    
    76   39   95 1    
    77   40   41 1    
    78   40   42 1    
    79   40   96 1    
    80   41   97 1    
    81   41   98 1    
    82   41   99 1    
    83   42   43 2    
    84   42   44 am   BACKBONE|DICT|INTERRES
    85   44   45 1    
    86   44  100 1    
    87   45   46 1    
    88   45   47 1    
    89   45  101 1    
    90   46  102 1    
    91   46  103 1    
    92   46  104 1    
    93   47   48 2    
    94   47   49 am   BACKBONE|DICT|INTERRES
    95   49   50 1    
    96   49  105 1    
    97   50   51 1    
    98   50   52 1    
    99   50  106 1    
   100   51  107 1    
   101   51  108 1    
   102   51  109 1    
   103   52   53 2    
   104   52   54 am   BACKBONE|DICT|INTERRES
   105   54   55 1    
   106   54  110 1    
   107   55   56 1    
   108   55   59 1    
   109   55  111 1    
   110   56   57 am   BACKBONE|DICT|INTERRES
   111   56   58 2    
   112   57  112 1    
   113   57  113 1    
   114   59   60 1    
   115   59  114 1    
   116   59  115 1    
   117   60   61 1    
   118   61  116 1    
   119   61  117 1    
@<TRIPOS>SUBSTRUCTURE
     1 UNK         1 GROUP             0       ****    0 ROOT    
