@<TRIPOS>MOLECULE
3R8
117   119    1
SMALL
USER_CHARGES


@<TRIPOS>ATOM
      1 CA         16.0729  -32.1468  -46.8470 C.3       0 UNK        -0.2013 
      2 C          15.8908  -30.9072  -45.9847 C.2       0 UNK         0.4866 
      3 O          15.2042  -30.9671  -44.9650 O.2       0 UNK        -0.5176 
      4 N          16.5038  -29.7879  -46.3834 N.am      1 UNK        -0.4884 
      5 CA         16.5087  -28.5201  -45.6496 C.3       1 UNK         0.0853 
      6 C6         15.1436  -27.7828  -45.7563 C.3       10 UNK        -0.0849 
      7 S7         14.8438  -26.5183  -44.4755 S.3       10 UNK        -0.2776 
      8 C8         14.6906  -27.5103  -42.9472 C.3       10 UNK         0.0316 
      9 C9         16.0162  -27.6895  -42.2094 C.ar      10 UNK        -0.0863 
     10 C10        16.3519  -28.9283  -41.6524 C.ar      10 UNK        -0.1009 
     11 C11        17.5579  -29.0999  -40.9562 C.ar      10 UNK        -0.0712 
     12 C12        18.4232  -28.0099  -40.8168 C.ar      10 UNK        -0.0894 
     13 C13        18.0982  -26.7658  -41.3616 C.ar      10 UNK        -0.0745 
     14 C14        16.8916  -26.6115  -42.0460 C.ar      10 UNK        -0.0972 
     15 C15        19.0271  -25.5725  -41.2008 C.3       10 UNK         0.0209 
     16 S16        19.8426  -25.1591  -42.7742 S.3       10 UNK        -0.2568 
     17 C17        21.4420  -26.0209  -42.6199 C.3       10 UNK        -0.0983 
     18 CA         21.4131  -27.5296  -42.9911 C.3       3 UNK         0.0876 
     19 N          20.7567  -27.8274  -44.2770 N.am      3 UNK        -0.4424 
     20 C          21.0626  -27.3683  -45.4984 C.2       2 UNK         0.4918 
     21 O          22.0380  -26.6563  -45.7356 O.2       2 UNK        -0.4875 
     22 CA         20.1625  -27.8053  -46.6672 C.3       2 UNK         0.0481 
     23 CB         20.8930  -28.8478  -47.5300 C.3       2 UNK        -0.1831 
     24 N          18.8860  -28.3735  -46.2244 N.am      2 UNK        -0.4498 
     25 C          17.7376  -27.6933  -46.0885 C.2       1 UNK         0.5027 
     26 O          17.6298  -26.4925  -46.3403 O.2       1 UNK        -0.4969 
     27 C          22.8298  -28.1233  -42.8200 C.2       3 UNK         0.5005 
     28 O          23.2410  -28.3411  -41.6779 O.2       3 UNK        -0.5279 
     29 N          23.5633  -28.3379  -43.9230 N.am      4 UNK        -0.4463 
     30 CA         24.9644  -28.7696  -43.9853 C.3       4 UNK         0.0283 
     31 CB         25.1052  -30.2328  -43.5047 C.3       4 UNK        -0.1875 
     32 C          25.8788  -27.7680  -43.2500 C.2       4 UNK         0.4949 
     33 O          25.6710  -26.5593  -43.3729 O.2       4 UNK        -0.5039 
     34 N          26.8416  -28.2621  -42.4631 N.am      5 UNK        -0.4663 
     35 CA         27.6966  -27.4618  -41.5800 C.3       5 UNK         0.0242 
     36 CB         29.0593  -28.1674  -41.4408 C.3       5 UNK        -0.1982 
     37 C          27.0147  -27.2089  -40.2179 C.2       5 UNK         0.5017 
     38 O          27.6460  -27.3997  -39.1772 O.2       5 UNK        -0.5012 
     39 N          25.7300  -26.8176  -40.2554 N.am      6 UNK        -0.4439 
     40 CA         24.7968  -26.6819  -39.1285 C.3       6 UNK         0.0297 
     41 CB         25.2025  -25.5086  -38.2114 C.3       6 UNK        -0.2006 
     42 C          24.6353  -28.0174  -38.3761 C.2       6 UNK         0.4892 
     43 O          24.9013  -28.0928  -37.1743 O.2       6 UNK        -0.5089 
     44 N          24.2500  -29.0565  -39.1246 N.am      7 UNK        -0.4243 
     45 CA         24.1902  -30.4429  -38.6740 C.3       7 UNK         0.0196 
     46 CB         25.5346  -31.1367  -38.9881 C.3       7 UNK        -0.2007 
     47 C          22.9559  -31.1188  -39.2895 C.2       7 UNK         0.5020 
     48 O          21.8402  -30.6464  -39.0638 O.2       7 UNK        -0.5147 
     49 N          23.1622  -32.2206  -40.0245 N.am      8 UNK        -0.4734 
     50 CA         22.1196  -32.9854  -40.7146 C.3       8 UNK         0.0238 
     51 CB         22.7413  -34.2621  -41.3038 C.3       8 UNK        -0.1912 
     52 C          21.4323  -32.1652  -41.8187 C.2       8 UNK         0.5038 
     53 O          22.0800  -31.3335  -42.4552 O.2       8 UNK        -0.5046 
     54 N          20.1388  -32.4279  -42.0329 N.am      9 UNK        -0.4200 
     55 CA         19.2839  -31.6616  -42.9520 C.3       9 UNK         0.0839 
     56 C          19.6381  -31.7965  -44.4597 C.2       9 UNK         0.5513 
     57 N          20.3802  -32.8108  -44.8842 N.am      9 UNK        -0.7519 
     58 O          19.2308  -30.9557  -45.2544 O.2       9 UNK        -0.4960 
     59 C59        17.7770  -31.9533  -42.7290 C.3       10 UNK        -0.0876 
     60 S60        17.1895  -31.9265  -40.9972 S.3       10 UNK        -0.2414 
     61 C61        17.9490  -30.4212  -40.2923 C.3       10 UNK         0.0169 
     62 H62        16.5567  -32.9341  -46.2694 H         1 UNK         0.0903 
     63 H63        15.1049  -32.5156  -47.1850 H         1 UNK         0.0903 
     64 H64        16.6867  -31.9467  -47.7251 H         1 UNK         0.0903 
     65 H65        17.0573  -29.7948  -47.2302 H         1 UNK         0.3096 
     66 H66        16.6874  -28.7666  -44.6024 H         1 UNK         0.1121 
     67 H67        15.0386  -27.3172  -46.7378 H         1 UNK         0.0849 
     68 H68        14.3205  -28.4953  -45.6887 H         1 UNK         0.0849 
     69 H69        13.9941  -27.0063  -42.2760 H         1 UNK         0.0865 
     70 H70        14.2419  -28.4764  -43.1854 H         1 UNK         0.0865 
     71 H71        15.6623  -29.7546  -41.7543 H         1 UNK         0.1346 
     72 H72        19.3481  -28.1282  -40.2681 H         1 UNK         0.1412 
     73 H73        16.6388  -25.6437  -42.4574 H         1 UNK         0.1426 
     74 H74        19.7677  -25.7502  -40.4198 H         1 UNK         0.0716 
     75 H75        18.4442  -24.7102  -40.8738 H         1 UNK         0.0716 
     76 H76        21.8109  -25.8845  -41.6014 H         1 UNK         0.0695 
     77 H77        22.1510  -25.4918  -43.2596 H         1 UNK         0.0695 
     78 H78        20.8052  -28.0399  -42.2448 H         1 UNK         0.0983 
     79 H79        19.9513  -28.4311  -44.2112 H         1 UNK         0.3095 
     80 H80        19.9781  -26.9253  -47.2867 H         1 UNK         0.0454 
     81 H81        21.1268  -29.7503  -46.9635 H         1 UNK         0.0851 
     82 H82        21.8339  -28.4502  -47.9127 H         1 UNK         0.0851 
     83 H83        20.2930  -29.1398  -48.3918 H         1 UNK         0.0851 
     84 H84        18.9016  -29.3632  -45.9746 H         1 UNK         0.2976 
     85 H85        23.1667  -28.0013  -44.7935 H         1 UNK         0.3116 
     86 H86        25.2519  -28.7331  -45.0368 H         1 UNK         0.0646 
     87 H87        24.4167  -30.8854  -44.0419 H         1 UNK         0.0847 
     88 H88        26.1091  -30.6191  -43.6829 H         1 UNK         0.0847 
     89 H89        24.8855  -30.3398  -42.4416 H         1 UNK         0.0847 
     90 H90        26.9288  -29.2651  -42.3844 H         1 UNK         0.3040 
     91 H91        27.8755  -26.4836  -42.0326 H         1 UNK         0.1015 
     92 H92        28.9625  -29.1421  -40.9609 H         1 UNK         0.0786 
     93 H93        29.7486  -27.5735  -40.8388 H         1 UNK         0.0786 
     94 H94        29.5299  -28.3164  -42.4128 H         1 UNK         0.0786 
     95 H95        25.3170  -26.7148  -41.1750 H         1 UNK         0.3172 
     96 H96        23.8221  -26.4448  -39.5580 H         1 UNK         0.0595 
     97 H97        26.1611  -25.6847  -37.7225 H         1 UNK         0.0839 
     98 H98        24.4619  -25.3568  -37.4254 H         1 UNK         0.0839 
     99 H99        25.2778  -24.5760  -38.7704 H         1 UNK         0.0839 
    100 H100       23.9530  -28.8831  -40.0860 H         1 UNK         0.2998 
    101 H101       24.0369  -30.4706  -37.5931 H         1 UNK         0.0822 
    102 H102       25.5433  -32.1691  -38.6362 H         1 UNK         0.0787 
    103 H103       25.7533  -31.1385  -40.0566 H         1 UNK         0.0787 
    104 H104       26.3596  -30.6274  -38.4890 H         1 UNK         0.0787 
    105 H105       24.1141  -32.5205  -40.1741 H         1 UNK         0.3055 
    106 H106       21.3694  -33.2665  -39.9720 H         1 UNK         0.1106 
    107 H107       23.2005  -34.8760  -40.5287 H         1 UNK         0.0828 
    108 H108       21.9852  -34.8769  -41.7939 H         1 UNK         0.0828 
    109 H109       23.5053  -34.0317  -42.0478 H         1 UNK         0.0828 
    110 H110       19.6753  -33.1412  -41.4896 H         1 UNK         0.2931 
    111 H111       19.4463  -30.6087  -42.7138 H         1 UNK         0.0412 
    112 H112       20.7302  -33.4964  -44.2351 H         1 UNK         0.3472 
    113 H113       20.6042  -32.8806  -45.8638 H         1 UNK         0.3472 
    114 H114       17.1816  -31.2270  -43.2821 H         1 UNK         0.0970 
    115 H115       17.5153  -32.9289  -43.1433 H         1 UNK         0.0970 
    116 H116       17.6612  -30.3648  -39.2420 H         1 UNK         0.0612 
    117 H117       19.0335  -30.5374  -40.2978 H         1 UNK         0.0612 
@<TRIPOS>BOND
     1    1    2 1    
     2    1   62 1    
     3    1   63 1    
     4    1   64 1    
     5    2    3 2    
     6    2    4 am   BACKBONE|DICT|INTERRES
     7    4    5 1    
     8    4   65 1    
     9    5    6 1    
    10    5   25 1    
    11    5   66 1    
    12    6    7 1    
    13    6   67 1    
    14    6   68 1    
    15    7    8 1    
    16    8    9 1    
    17    8   69 1    
    18    8   70 1    
    19    9   10 ar   
    20    9   14 ar   
    21   10   11 ar   
    22   10   71 1    
    23   11   12 ar   
    24   11   61 1    
    25   12   13 ar   
    26   12   72 1    
    27   13   14 ar   
    28   13   15 1    
    29   14   73 1    
    30   15   16 1    
    31   15   74 1    
    32   15   75 1    
    33   16   17 1    
    34   17   18 1    
    35   17   76 1    
    36   17   77 1    
    37   18   19 1    
    38   18   27 1    
    39   18   78 1    
    40   19   20 am   BACKBONE|DICT|INTERRES
    41   19   79 1    
    42   20   21 2    
    43   20   22 1    
    44   22   23 1    
    45   22   24 1    
    46   22   80 1    
    47   23   81 1    
    48   23   82 1    
    49   23   83 1    
    50   24   25 am   BACKBONE|DICT|INTERRES
    51   24   84 1    
    52   25   26 2    
    53   27   28 2    
    54   27   29 am   BACKBONE|DICT|INTERRES
    55   29   30 1    
    56   29   85 1    
    57   30   31 1    
    58   30   32 1    
    59   30   86 1    
    60   31   87 1    
    61   31   88 1    
    62   31   89 1    
    63   32   33 2    
    64   32   34 am   BACKBONE|DICT|INTERRES
    65   34   35 1    
    66   34   90 1    
    67   35   36 1    
    68   35   37 1    
    69   35   91 1    
    70   36   92 1    
    71   36   93 1    
    72   36   94 1    
    73   37   38 2    
    74   37   39 am   BACKBONE|DICT|INTERRES
    75   39   40 1    
    76   39   95 1    
    77   40   41 1    
    78   40   42 1    
    79   40   96 1    
    80   41   97 1    
    81   41   98 1    
    82   41   99 1    
    83   42   43 2    
    84   42   44 am   BACKBONE|DICT|INTERRES
    85   44   45 1    
    86   44  100 1    
    87   45   46 1    
    88   45   47 1    
    89   45  101 1    
    90   46  102 1    
    91   46  103 1    
    92   46  104 1    
    93   47   48 2    
    94   47   49 am   BACKBONE|DICT|INTERRES
    95   49   50 1    
    96   49  105 1    
    97   50   51 1    
    98   50   52 1    
    99   50  106 1    
   100   51  107 1    
   101   51  108 1    
   102   51  109 1    
   103   52   53 2    
   104   52   54 am   BACKBONE|DICT|INTERRES
   105   54   55 1    
   106   54  110 1    
   107   55   56 1    
   108   55   59 1    
   109   55  111 1    
   110   56   57 am   BACKBONE|DICT|INTERRES
   111   56   58 2    
   112   57  112 1    
   113   57  113 1    
   114   59   60 1    
   115   59  114 1    
   116   59  115 1    
   117   60   61 1    
   118   61  116 1    
   119   61  117 1    
@<TRIPOS>SUBSTRUCTURE
     1 UNK         1 GROUP             0       ****    0 ROOT    
