@<TRIPOS>MOLECULE
3R8
117   119    1
SMALL
USER_CHARGES


@<TRIPOS>ATOM
      1 CA         20.0724  -21.1990  -46.1210 C.3       0 UNK        -0.2013 
      2 C          20.4155  -22.4331  -45.3004 C.2       0 UNK         0.4866 
      3 O          20.8859  -22.3046  -44.1701 O.2       0 UNK        -0.5176 
      4 N          20.1855  -23.6289  -45.8613 N.am      1 UNK        -0.4884 
      5 CA         20.4417  -24.9208  -45.2084 C.3       1 UNK         0.0853 
      6 C6         20.4477  -26.0838  -46.2408 C.3       10 UNK        -0.0849 
      7 S7         21.7220  -27.3312  -45.8720 S.3       10 UNK        -0.2776 
      8 C8         21.2254  -28.7084  -46.9610 C.3       10 UNK         0.0316 
      9 C9         20.2975  -29.6813  -46.2481 C.ar      10 UNK        -0.0863 
     10 C10        20.8024  -30.4838  -45.2223 C.ar      10 UNK        -0.1009 
     11 C11        19.9659  -31.3501  -44.5153 C.ar      10 UNK        -0.0712 
     12 C12        18.6211  -31.4545  -44.8791 C.ar      10 UNK        -0.0894 
     13 C13        18.1016  -30.6598  -45.9072 C.ar      10 UNK        -0.0745 
     14 C14        18.9453  -29.7776  -46.5931 C.ar      10 UNK        -0.0972 
     15 C15        16.6137  -30.7054  -46.2246 C.3       10 UNK         0.0209 
     16 S16        15.7317  -29.2613  -45.5408 S.3       10 UNK        -0.2568 
     17 C17        16.0189  -29.4367  -43.7432 C.3       10 UNK        -0.0983 
     18 CA         17.2868  -28.6714  -43.2761 C.3       3 UNK         0.0876 
     19 N          17.2672  -27.2454  -43.5954 N.am      3 UNK        -0.4424 
     20 C          16.6037  -26.2638  -42.9744 C.2       2 UNK         0.4918 
     21 O          15.7055  -26.4512  -42.1535 O.2       2 UNK        -0.4875 
     22 CA         17.0573  -24.8206  -43.2916 C.3       2 UNK         0.0481 
     23 CB         17.3449  -24.0383  -41.9934 C.3       2 UNK        -0.1831 
     24 N          18.2071  -24.7088  -44.2093 N.am      2 UNK        -0.4498 
     25 C          19.4510  -25.1994  -44.0575 C.2       1 UNK         0.5027 
     26 O          19.8026  -25.8822  -43.0915 O.2       1 UNK        -0.4969 
     27 C          17.6892  -28.9335  -41.8078 C.2       3 UNK         0.5005 
     28 O          17.1241  -29.8186  -41.1613 O.2       3 UNK        -0.5279 
     29 N          18.6530  -28.1429  -41.3065 N.am      4 UNK        -0.4463 
     30 CA         19.1336  -28.2018  -39.9248 C.3       4 UNK         0.0283 
     31 CB         18.1110  -27.5339  -38.9839 C.3       4 UNK        -0.1875 
     32 C          20.5236  -27.5781  -39.7174 C.2       4 UNK         0.4949 
     33 O          21.1672  -27.9164  -38.7239 O.2       4 UNK        -0.5039 
     34 N          20.9637  -26.6611  -40.5946 N.am      5 UNK        -0.4663 
     35 CA         22.2007  -25.8948  -40.3986 C.3       5 UNK         0.0242 
     36 CB         22.1364  -24.6025  -41.2303 C.3       5 UNK        -0.1982 
     37 C          23.4823  -26.6770  -40.7321 C.2       5 UNK         0.5017 
     38 O          24.5440  -26.3305  -40.2115 O.2       5 UNK        -0.5012 
     39 N          23.3786  -27.6880  -41.6034 N.am      6 UNK        -0.4439 
     40 CA         24.5026  -28.5194  -42.0326 C.3       6 UNK         0.0297 
     41 CB         24.1576  -29.1787  -43.3766 C.3       6 UNK        -0.2006 
     42 C          24.8320  -29.5985  -40.9927 C.2       6 UNK         0.4892 
     43 O          23.9230  -30.1562  -40.3756 O.2       6 UNK        -0.5089 
     44 N          26.1233  -29.9414  -40.8856 N.am      7 UNK        -0.4243 
     45 CA         26.6185  -31.0631  -40.0765 C.3       7 UNK         0.0196 
     46 CB         28.1541  -31.0205  -40.0302 C.3       7 UNK        -0.2007 
     47 C          26.1307  -32.4333  -40.5847 C.2       7 UNK         0.5020 
     48 O          25.9957  -33.3650  -39.7916 O.2       7 UNK        -0.5147 
     49 N          25.8291  -32.5155  -41.8892 N.am      8 UNK        -0.4734 
     50 CA         25.2375  -33.6739  -42.5651 C.3       8 UNK         0.0238 
     51 CB         25.1860  -33.3951  -44.0763 C.3       8 UNK        -0.1912 
     52 C          23.8389  -34.0620  -42.0494 C.2       8 UNK         0.5038 
     53 O          23.4294  -35.2054  -42.2538 O.2       8 UNK        -0.5046 
     54 N          23.1380  -33.1261  -41.3937 N.am      9 UNK        -0.4200 
     55 CA         21.8521  -33.3707  -40.7262 C.3       9 UNK         0.0839 
     56 C          21.9708  -34.1819  -39.4017 C.2       9 UNK         0.5513 
     57 N          23.1596  -34.3993  -38.8487 N.am      9 UNK        -0.7519 
     58 O          20.9593  -34.6291  -38.8679 O.2       9 UNK        -0.4960 
     59 C59        21.0613  -32.0564  -40.4888 C.3       10 UNK        -0.0876 
     60 S60        20.8271  -30.9731  -41.9413 S.3       10 UNK        -0.2414 
     61 C61        20.5051  -32.1187  -43.3198 C.3       10 UNK         0.0169 
     62 H62        20.9620  -20.5868  -46.2666 H         1 UNK         0.0903 
     63 H63        19.6746  -21.4572  -47.1023 H         1 UNK         0.0903 
     64 H64        19.3272  -20.5982  -45.6004 H         1 UNK         0.0903 
     65 H65        19.8117  -23.6701  -46.7996 H         1 UNK         0.3096 
     66 H66        21.4329  -24.8479  -44.7540 H         1 UNK         0.1121 
     67 H67        19.4712  -26.5650  -46.3293 H         1 UNK         0.0849 
     68 H68        20.6771  -25.7059  -47.2388 H         1 UNK         0.0849 
     69 H69        20.7681  -28.3212  -47.8728 H         1 UNK         0.0865 
     70 H70        22.1217  -29.2441  -47.2770 H         1 UNK         0.0865 
     71 H71        21.8430  -30.4004  -44.9444 H         1 UNK         0.1346 
     72 H72        17.9663  -32.1147  -44.3267 H         1 UNK         0.1412 
     73 H73        18.5403  -29.1502  -47.3755 H         1 UNK         0.1426 
     74 H74        16.4735  -30.7271  -47.3063 H         1 UNK         0.0716 
     75 H75        16.1614  -31.6206  -45.8394 H         1 UNK         0.0716 
     76 H76        15.1391  -29.0664  -43.2147 H         1 UNK         0.0695 
     77 H77        16.0927  -30.4988  -43.5046 H         1 UNK         0.0695 
     78 H78        18.1369  -29.0515  -43.8360 H         1 UNK         0.0983 
     79 H79        17.9703  -26.9553  -44.2571 H         1 UNK         0.3095 
     80 H80        16.2176  -24.3398  -43.7951 H         1 UNK         0.0454 
     81 H81        16.4606  -23.9928  -41.3567 H         1 UNK         0.0851 
     82 H82        18.1407  -24.5006  -41.4085 H         1 UNK         0.0851 
     83 H83        17.6407  -23.0112  -42.2065 H         1 UNK         0.0851 
     84 H84        18.0296  -24.1801  -45.0524 H         1 UNK         0.2976 
     85 H85        19.0706  -27.4490  -41.9155 H         1 UNK         0.3116 
     86 H86        19.2280  -29.2532  -39.6441 H         1 UNK         0.0646 
     87 H87        18.4601  -27.5454  -37.9505 H         1 UNK         0.0847 
     88 H88        17.1514  -28.0502  -39.0017 H         1 UNK         0.0847 
     89 H89        17.9350  -26.4932  -39.2588 H         1 UNK         0.0847 
     90 H90        20.4153  -26.4034  -41.4098 H         1 UNK         0.3040 
     91 H91        22.2633  -25.6084  -39.3459 H         1 UNK         0.1015 
     92 H92        21.2362  -24.0279  -41.0104 H         1 UNK         0.0786 
     93 H93        22.1490  -24.8097  -42.3006 H         1 UNK         0.0786 
     94 H94        22.9913  -23.9597  -41.0169 H         1 UNK         0.0786 
     95 H95        22.4600  -27.9450  -41.9339 H         1 UNK         0.3172 
     96 H96        25.3772  -27.8813  -42.1768 H         1 UNK         0.0595 
     97 H97        23.3126  -29.8595  -43.2804 H         1 UNK         0.0839 
     98 H98        24.9989  -29.7561  -43.7609 H         1 UNK         0.0839 
     99 H99        23.9085  -28.4342  -44.1319 H         1 UNK         0.0839 
    100 H100       26.8097  -29.4348  -41.4270 H         1 UNK         0.2998 
    101 H101       26.2388  -30.9378  -39.0602 H         1 UNK         0.0822 
    102 H102       28.5129  -30.0861  -39.5981 H         1 UNK         0.0787 
    103 H103       28.5478  -31.8314  -39.4155 H         1 UNK         0.0787 
    104 H104       28.5924  -31.1228  -41.0236 H         1 UNK         0.0787 
    105 H105       25.9866  -31.6964  -42.4568 H         1 UNK         0.3055 
    106 H106       25.8922  -34.5302  -42.3903 H         1 UNK         0.1106 
    107 H107       24.7827  -34.2522  -44.6179 H         1 UNK         0.0828 
    108 H108       24.5523  -32.5382  -44.3078 H         1 UNK         0.0828 
    109 H109       26.1794  -33.1999  -44.4798 H         1 UNK         0.0828 
    110 H110       23.5413  -32.2092  -41.2497 H         1 UNK         0.2931 
    111 H111       21.2544  -33.9943  -41.3929 H         1 UNK         0.0412 
    112 H112       23.2139  -34.9296  -37.9936 H         1 UNK         0.3472 
    113 H113       24.0060  -34.0379  -39.2704 H         1 UNK         0.3472 
    114 H114       21.5547  -31.4579  -39.7203 H         1 UNK         0.0970 
    115 H115       20.0692  -32.2840  -40.0948 H         1 UNK         0.0970 
    116 H116       19.7934  -32.8814  -43.0005 H         1 UNK         0.0612 
    117 H117       21.4245  -32.6335  -43.5999 H         1 UNK         0.0612 
@<TRIPOS>BOND
     1    1    2 1    
     2    1   62 1    
     3    1   63 1    
     4    1   64 1    
     5    2    3 2    
     6    2    4 am   BACKBONE|DICT|INTERRES
     7    4    5 1    
     8    4   65 1    
     9    5    6 1    
    10    5   25 1    
    11    5   66 1    
    12    6    7 1    
    13    6   67 1    
    14    6   68 1    
    15    7    8 1    
    16    8    9 1    
    17    8   69 1    
    18    8   70 1    
    19    9   10 ar   
    20    9   14 ar   
    21   10   11 ar   
    22   10   71 1    
    23   11   12 ar   
    24   11   61 1    
    25   12   13 ar   
    26   12   72 1    
    27   13   14 ar   
    28   13   15 1    
    29   14   73 1    
    30   15   16 1    
    31   15   74 1    
    32   15   75 1    
    33   16   17 1    
    34   17   18 1    
    35   17   76 1    
    36   17   77 1    
    37   18   19 1    
    38   18   27 1    
    39   18   78 1    
    40   19   20 am   BACKBONE|DICT|INTERRES
    41   19   79 1    
    42   20   21 2    
    43   20   22 1    
    44   22   23 1    
    45   22   24 1    
    46   22   80 1    
    47   23   81 1    
    48   23   82 1    
    49   23   83 1    
    50   24   25 am   BACKBONE|DICT|INTERRES
    51   24   84 1    
    52   25   26 2    
    53   27   28 2    
    54   27   29 am   BACKBONE|DICT|INTERRES
    55   29   30 1    
    56   29   85 1    
    57   30   31 1    
    58   30   32 1    
    59   30   86 1    
    60   31   87 1    
    61   31   88 1    
    62   31   89 1    
    63   32   33 2    
    64   32   34 am   BACKBONE|DICT|INTERRES
    65   34   35 1    
    66   34   90 1    
    67   35   36 1    
    68   35   37 1    
    69   35   91 1    
    70   36   92 1    
    71   36   93 1    
    72   36   94 1    
    73   37   38 2    
    74   37   39 am   BACKBONE|DICT|INTERRES
    75   39   40 1    
    76   39   95 1    
    77   40   41 1    
    78   40   42 1    
    79   40   96 1    
    80   41   97 1    
    81   41   98 1    
    82   41   99 1    
    83   42   43 2    
    84   42   44 am   BACKBONE|DICT|INTERRES
    85   44   45 1    
    86   44  100 1    
    87   45   46 1    
    88   45   47 1    
    89   45  101 1    
    90   46  102 1    
    91   46  103 1    
    92   46  104 1    
    93   47   48 2    
    94   47   49 am   BACKBONE|DICT|INTERRES
    95   49   50 1    
    96   49  105 1    
    97   50   51 1    
    98   50   52 1    
    99   50  106 1    
   100   51  107 1    
   101   51  108 1    
   102   51  109 1    
   103   52   53 2    
   104   52   54 am   BACKBONE|DICT|INTERRES
   105   54   55 1    
   106   54  110 1    
   107   55   56 1    
   108   55   59 1    
   109   55  111 1    
   110   56   57 am   BACKBONE|DICT|INTERRES
   111   56   58 2    
   112   57  112 1    
   113   57  113 1    
   114   59   60 1    
   115   59  114 1    
   116   59  115 1    
   117   60   61 1    
   118   61  116 1    
   119   61  117 1    
@<TRIPOS>SUBSTRUCTURE
     1 UNK         1 GROUP             0       ****    0 ROOT    
