@<TRIPOS>MOLECULE
3R8
117   119    1
SMALL
USER_CHARGES


@<TRIPOS>ATOM
      1 CA         14.1788  -24.4150  -40.6206 C.3       0 UNK        -0.2013 
      2 C          15.0627  -24.9169  -41.7526 C.2       0 UNK         0.4866 
      3 O          15.1416  -24.2710  -42.7975 O.2       0 UNK        -0.5176 
      4 N          15.7202  -26.0672  -41.5534 N.am      1 UNK        -0.4884 
      5 CA         16.6304  -26.7002  -42.5161 C.3       1 UNK         0.0853 
      6 C6         17.0184  -28.1312  -42.0705 C.3       10 UNK        -0.0849 
      7 S7         15.6605  -29.3410  -42.2768 S.3       10 UNK        -0.2776 
      8 C8         15.7962  -29.8641  -44.0266 C.3       10 UNK         0.0316 
      9 C9         17.1215  -30.5506  -44.3271 C.ar      10 UNK        -0.0863 
     10 C10        17.2817  -31.9303  -44.1541 C.ar      10 UNK        -0.1009 
     11 C11        18.5301  -32.5379  -44.3480 C.ar      10 UNK        -0.0712 
     12 C12        19.6272  -31.7333  -44.6919 C.ar      10 UNK        -0.0894 
     13 C13        19.4736  -30.3565  -44.8623 C.ar      10 UNK        -0.0745 
     14 C14        18.2095  -29.7834  -44.7406 C.ar      10 UNK        -0.0972 
     15 C15        20.6787  -29.4555  -45.0533 C.3       10 UNK         0.0209 
     16 S16        20.9488  -28.5528  -43.5011 S.3       10 UNK        -0.2568 
     17 C17        22.4017  -27.5263  -43.8665 C.3       10 UNK        -0.0983 
     18 CA         22.0392  -26.0872  -44.3431 C.3       3 UNK         0.0876 
     19 N          21.0012  -25.4345  -43.5319 N.am      3 UNK        -0.4424 
     20 C          21.0050  -25.1820  -42.2169 C.2       2 UNK         0.4918 
     21 O          21.9324  -25.4578  -41.4551 O.2       2 UNK        -0.4875 
     22 CA         19.7339  -24.5222  -41.6428 C.3       2 UNK         0.0481 
     23 CB         19.4812  -23.1332  -42.2634 C.3       2 UNK        -0.1831 
     24 N          18.5273  -25.3640  -41.7015 N.am      2 UNK        -0.4498 
     25 C          17.8892  -25.8458  -42.7817 C.2       1 UNK         0.5027 
     26 O          18.2358  -25.6324  -43.9448 O.2       1 UNK        -0.4969 
     27 C          23.3121  -25.2251  -44.5122 C.2       3 UNK         0.5005 
     28 O          23.4279  -24.1343  -43.9473 O.2       3 UNK        -0.5279 
     29 N          24.2614  -25.7587  -45.2903 N.am      4 UNK        -0.4463 
     30 CA         25.6443  -25.2895  -45.4102 C.3       4 UNK         0.0283 
     31 CB         25.8628  -24.6840  -46.8094 C.3       4 UNK        -0.1875 
     32 C          26.6033  -26.4593  -45.1113 C.2       4 UNK         0.4949 
     33 O          27.6761  -26.5525  -45.7088 O.2       4 UNK        -0.5039 
     34 N          26.1762  -27.3503  -44.2088 N.am      5 UNK        -0.4663 
     35 CA         26.8469  -28.5777  -43.7900 C.3       5 UNK         0.0242 
     36 CB         26.7202  -29.6612  -44.8859 C.3       5 UNK        -0.1982 
     37 C          26.2502  -28.9834  -42.4312 C.2       5 UNK         0.5017 
     38 O          26.0142  -28.1042  -41.5993 O.2       5 UNK        -0.5012 
     39 N          25.9957  -30.2829  -42.2237 N.am      6 UNK        -0.4439 
     40 CA         25.3043  -30.8207  -41.0501 C.3       6 UNK         0.0297 
     41 CB         25.4275  -32.3541  -41.0393 C.3       6 UNK        -0.2006 
     42 C          23.8290  -30.3870  -41.0478 C.2       6 UNK         0.4892 
     43 O          23.0756  -30.8170  -41.9243 O.2       6 UNK        -0.5089 
     44 N          23.4631  -29.5345  -40.0804 N.am      7 UNK        -0.4243 
     45 CA         22.1276  -28.9579  -39.9115 C.3       7 UNK         0.0196 
     46 CB         22.1316  -27.9948  -38.7135 C.3       7 UNK        -0.2007 
     47 C          21.0530  -30.0422  -39.7417 C.2       7 UNK         0.5020 
     48 O          21.1368  -30.8338  -38.8005 O.2       7 UNK        -0.5147 
     49 N          20.0958  -30.0786  -40.6785 N.am      8 UNK        -0.4734 
     50 CA         19.0124  -31.0649  -40.7943 C.3       8 UNK         0.0238 
     51 CB         18.0053  -30.9039  -39.6347 C.3       8 UNK        -0.1912 
     52 C          19.5218  -32.5152  -40.9307 C.2       8 UNK         0.5038 
     53 O          18.8645  -33.4360  -40.4419 O.2       8 UNK        -0.5046 
     54 N          20.6912  -32.6849  -41.5666 N.am      9 UNK        -0.4200 
     55 CA         21.4475  -33.9427  -41.6776 C.3       9 UNK         0.0839 
     56 C          22.0854  -34.4193  -40.3351 C.2       9 UNK         0.5513 
     57 N          22.1185  -33.6159  -39.2773 N.am      9 UNK        -0.7519 
     58 O          22.5982  -35.5327  -40.2558 O.2       9 UNK        -0.4960 
     59 C59        20.6706  -35.0801  -42.4099 C.3       10 UNK        -0.0876 
     60 S60        20.3405  -34.7371  -44.1726 S.3       10 UNK        -0.2414 
     61 C61        18.6412  -34.0551  -44.1629 C.3       10 UNK         0.0169 
     62 H62        13.1468  -24.3303  -40.9600 H         1 UNK         0.0903 
     63 H63        14.1984  -25.0828  -39.7595 H         1 UNK         0.0903 
     64 H64        14.5118  -23.4303  -40.2934 H         1 UNK         0.0903 
     65 H65        15.5847  -26.5672  -40.6859 H         1 UNK         0.3096 
     66 H66        16.1030  -26.7684  -43.4703 H         1 UNK         0.1121 
     67 H67        17.2986  -28.1220  -41.0166 H         1 UNK         0.0849 
     68 H68        17.9108  -28.4877  -42.5777 H         1 UNK         0.0849 
     69 H69        14.9720  -30.5414  -44.2554 H         1 UNK         0.0865 
     70 H70        15.6615  -28.9980  -44.6763 H         1 UNK         0.0865 
     71 H71        16.4351  -32.5307  -43.8492 H         1 UNK         0.1346 
     72 H72        20.6142  -32.1583  -44.7986 H         1 UNK         0.1412 
     73 H73        18.0986  -28.7147  -44.8690 H         1 UNK         0.1426 
     74 H74        21.5692  -30.0331  -45.3059 H         1 UNK         0.0716 
     75 H75        20.5015  -28.7536  -45.8694 H         1 UNK         0.0716 
     76 H76        23.0097  -28.0514  -44.6047 H         1 UNK         0.0695 
     77 H77        23.0025  -27.4876  -42.9556 H         1 UNK         0.0695 
     78 H78        21.6020  -26.1720  -45.3393 H         1 UNK         0.0983 
     79 H79        20.1331  -25.2360  -44.0189 H         1 UNK         0.3095 
     80 H80        19.9237  -24.3633  -40.5800 H         1 UNK         0.0454 
     81 H81        19.2305  -23.1903  -43.3227 H         1 UNK         0.0851 
     82 H82        20.3658  -22.5013  -42.1744 H         1 UNK         0.0851 
     83 H83        18.6642  -22.6190  -41.7574 H         1 UNK         0.0851 
     84 H84        18.1423  -25.6108  -40.8006 H         1 UNK         0.2976 
     85 H85        24.0730  -26.6441  -45.7413 H         1 UNK         0.3116 
     86 H86        25.8510  -24.5192  -44.6642 H         1 UNK         0.0646 
     87 H87        25.1702  -23.8635  -46.9974 H         1 UNK         0.0847 
     88 H88        26.8720  -24.2828  -46.9103 H         1 UNK         0.0847 
     89 H89        25.7252  -25.4265  -47.5962 H         1 UNK         0.0847 
     90 H90        25.3358  -27.1374  -43.6881 H         1 UNK         0.3040 
     91 H91        27.9042  -28.3604  -43.6240 H         1 UNK         0.1015 
     92 H92        25.6807  -29.9446  -45.0573 H         1 UNK         0.0786 
     93 H93        27.2775  -30.5614  -44.6242 H         1 UNK         0.0786 
     94 H94        27.1256  -29.3129  -45.8360 H         1 UNK         0.0786 
     95 H95        26.1818  -30.9321  -42.9739 H         1 UNK         0.3172 
     96 H96        25.7955  -30.4354  -40.1539 H         1 UNK         0.0595 
     97 H97        24.9723  -32.8055  -41.9220 H         1 UNK         0.0839 
     98 H98        24.9284  -32.7768  -40.1662 H         1 UNK         0.0839 
     99 H99        26.4701  -32.6699  -40.9996 H         1 UNK         0.0839 
    100 H100       24.1621  -29.2398  -39.4144 H         1 UNK         0.2998 
    101 H101       21.9104  -28.3708  -40.8043 H         1 UNK         0.0822 
    102 H102       21.1478  -27.5444  -38.5745 H         1 UNK         0.0787 
    103 H103       22.3927  -28.5042  -37.7849 H         1 UNK         0.0787 
    104 H104       22.8396  -27.1793  -38.8639 H         1 UNK         0.0787 
    105 H105       20.1777  -29.4331  -41.4555 H         1 UNK         0.3055 
    106 H106       18.4893  -30.8414  -41.7246 H         1 UNK         0.1106 
    107 H107       17.1093  -31.4995  -39.8135 H         1 UNK         0.0828 
    108 H108       18.4287  -31.2302  -38.6842 H         1 UNK         0.0828 
    109 H109       17.6852  -29.8700  -39.5177 H         1 UNK         0.0828 
    110 H110       21.1921  -31.8616  -41.8818 H         1 UNK         0.2931 
    111 H111       22.3064  -33.6914  -42.3011 H         1 UNK         0.0412 
    112 H112       22.5443  -33.9480  -38.4269 H         1 UNK         0.3472 
    113 H113       21.7048  -32.6900  -39.3003 H         1 UNK         0.3472 
    114 H114       19.7460  -35.3346  -41.8922 H         1 UNK         0.0970 
    115 H115       21.2590  -35.9991  -42.4005 H         1 UNK         0.0970 
    116 H116       18.1357  -34.3460  -43.2412 H         1 UNK         0.0612 
    117 H117       18.0899  -34.5317  -44.9744 H         1 UNK         0.0612 
@<TRIPOS>BOND
     1    1    2 1    
     2    1   62 1    
     3    1   63 1    
     4    1   64 1    
     5    2    3 2    
     6    2    4 am   BACKBONE|DICT|INTERRES
     7    4    5 1    
     8    4   65 1    
     9    5    6 1    
    10    5   25 1    
    11    5   66 1    
    12    6    7 1    
    13    6   67 1    
    14    6   68 1    
    15    7    8 1    
    16    8    9 1    
    17    8   69 1    
    18    8   70 1    
    19    9   10 ar   
    20    9   14 ar   
    21   10   11 ar   
    22   10   71 1    
    23   11   12 ar   
    24   11   61 1    
    25   12   13 ar   
    26   12   72 1    
    27   13   14 ar   
    28   13   15 1    
    29   14   73 1    
    30   15   16 1    
    31   15   74 1    
    32   15   75 1    
    33   16   17 1    
    34   17   18 1    
    35   17   76 1    
    36   17   77 1    
    37   18   19 1    
    38   18   27 1    
    39   18   78 1    
    40   19   20 am   BACKBONE|DICT|INTERRES
    41   19   79 1    
    42   20   21 2    
    43   20   22 1    
    44   22   23 1    
    45   22   24 1    
    46   22   80 1    
    47   23   81 1    
    48   23   82 1    
    49   23   83 1    
    50   24   25 am   BACKBONE|DICT|INTERRES
    51   24   84 1    
    52   25   26 2    
    53   27   28 2    
    54   27   29 am   BACKBONE|DICT|INTERRES
    55   29   30 1    
    56   29   85 1    
    57   30   31 1    
    58   30   32 1    
    59   30   86 1    
    60   31   87 1    
    61   31   88 1    
    62   31   89 1    
    63   32   33 2    
    64   32   34 am   BACKBONE|DICT|INTERRES
    65   34   35 1    
    66   34   90 1    
    67   35   36 1    
    68   35   37 1    
    69   35   91 1    
    70   36   92 1    
    71   36   93 1    
    72   36   94 1    
    73   37   38 2    
    74   37   39 am   BACKBONE|DICT|INTERRES
    75   39   40 1    
    76   39   95 1    
    77   40   41 1    
    78   40   42 1    
    79   40   96 1    
    80   41   97 1    
    81   41   98 1    
    82   41   99 1    
    83   42   43 2    
    84   42   44 am   BACKBONE|DICT|INTERRES
    85   44   45 1    
    86   44  100 1    
    87   45   46 1    
    88   45   47 1    
    89   45  101 1    
    90   46  102 1    
    91   46  103 1    
    92   46  104 1    
    93   47   48 2    
    94   47   49 am   BACKBONE|DICT|INTERRES
    95   49   50 1    
    96   49  105 1    
    97   50   51 1    
    98   50   52 1    
    99   50  106 1    
   100   51  107 1    
   101   51  108 1    
   102   51  109 1    
   103   52   53 2    
   104   52   54 am   BACKBONE|DICT|INTERRES
   105   54   55 1    
   106   54  110 1    
   107   55   56 1    
   108   55   59 1    
   109   55  111 1    
   110   56   57 am   BACKBONE|DICT|INTERRES
   111   56   58 2    
   112   57  112 1    
   113   57  113 1    
   114   59   60 1    
   115   59  114 1    
   116   59  115 1    
   117   60   61 1    
   118   61  116 1    
   119   61  117 1    
@<TRIPOS>SUBSTRUCTURE
     1 UNK         1 GROUP             0       ****    0 ROOT    
