@<TRIPOS>MOLECULE
3R8
117   119    1
SMALL
USER_CHARGES


@<TRIPOS>ATOM
      1 CA         21.8483  -26.0619  -49.3977 C.3       0 UNK        -0.2013 
      2 C          21.3663  -25.8898  -47.9651 C.2       0 UNK         0.4866 
      3 O          21.9096  -25.0627  -47.2338 O.2       0 UNK        -0.5176 
      4 N          20.3582  -26.6715  -47.5604 N.am      1 UNK        -0.4884 
      5 CA         19.7338  -26.6398  -46.2320 C.3       1 UNK         0.0853 
      6 C6         18.8084  -27.8632  -46.0179 C.3       10 UNK        -0.0849 
      7 S7         19.6848  -29.4482  -46.2489 S.3       10 UNK        -0.2776 
      8 C8         18.3300  -30.6494  -46.0742 C.3       10 UNK         0.0316 
      9 C9         17.7695  -30.6418  -44.6621 C.ar      10 UNK        -0.0863 
     10 C10        18.4399  -31.3109  -43.6366 C.ar      10 UNK        -0.1009 
     11 C11        17.9602  -31.2692  -42.3241 C.ar      10 UNK        -0.0712 
     12 C12        16.7877  -30.5567  -42.0446 C.ar      10 UNK        -0.0894 
     13 C13        16.1099  -29.8817  -43.0675 C.ar      10 UNK        -0.0745 
     14 C14        16.5977  -29.9411  -44.3746 C.ar      10 UNK        -0.0972 
     15 C15        14.8695  -29.0524  -42.7750 C.3       10 UNK         0.0209 
     16 S16        15.2363  -27.2693  -42.8806 S.3       10 UNK        -0.2568 
     17 C17        16.2098  -27.0223  -41.3619 C.3       10 UNK        -0.0983 
     18 CA         17.7394  -27.1106  -41.5922 C.3       3 UNK         0.0876 
     19 N          18.2404  -26.0485  -42.4685 N.am      3 UNK        -0.4424 
     20 C          19.4965  -25.9784  -42.9273 C.2       2 UNK         0.4918 
     21 O          20.3384  -26.8618  -42.7636 O.2       2 UNK        -0.4875 
     22 CA         19.8476  -24.7111  -43.7221 C.3       2 UNK         0.0481 
     23 CB         21.3591  -24.5266  -43.9799 C.3       2 UNK        -0.1831 
     24 N          19.0513  -24.5605  -44.9473 N.am      2 UNK        -0.4498 
     25 C          18.9385  -25.3232  -46.0490 C.2       1 UNK         0.5027 
     26 O          18.1701  -24.9903  -46.9528 O.2       1 UNK        -0.4969 
     27 C          18.4598  -27.0850  -40.2305 C.2       3 UNK         0.5005 
     28 O          18.6564  -26.0045  -39.6684 O.2       3 UNK        -0.5279 
     29 N          18.8074  -28.2766  -39.7221 N.am      4 UNK        -0.4463 
     30 CA         19.4643  -28.5293  -38.4315 C.3       4 UNK         0.0283 
     31 CB         18.5488  -28.1239  -37.2566 C.3       4 UNK        -0.1875 
     32 C          20.8799  -27.9260  -38.3143 C.2       4 UNK         0.4949 
     33 O          21.3652  -27.7227  -37.2011 O.2       4 UNK        -0.5039 
     34 N          21.5380  -27.6823  -39.4572 N.am      5 UNK        -0.4663 
     35 CA         22.9019  -27.1473  -39.5404 C.3       5 UNK         0.0242 
     36 CB         23.0853  -26.4678  -40.9070 C.3       5 UNK        -0.1982 
     37 C          23.9953  -28.2065  -39.3057 C.2       5 UNK         0.5017 
     38 O          25.1762  -27.8568  -39.3128 O.2       5 UNK        -0.5012 
     39 N          23.5955  -29.4764  -39.1380 N.am      6 UNK        -0.4439 
     40 CA         24.4012  -30.6838  -38.9105 C.3       6 UNK         0.0297 
     41 CB         25.2765  -30.5678  -37.6472 C.3       6 UNK        -0.2006 
     42 C          25.2279  -31.1157  -40.1320 C.2       6 UNK         0.4892 
     43 O          25.1331  -32.2738  -40.5347 O.2       6 UNK        -0.5089 
     44 N          25.9898  -30.1836  -40.7183 N.am      7 UNK        -0.4243 
     45 CA         26.7800  -30.3856  -41.9348 C.3       7 UNK         0.0196 
     46 CB         27.7168  -29.1854  -42.1462 C.3       7 UNK        -0.2007 
     47 C          25.8965  -30.6158  -43.1709 C.2       7 UNK         0.5020 
     48 O          26.1676  -31.5280  -43.9515 O.2       7 UNK        -0.5147 
     49 N          24.8312  -29.8117  -43.3042 N.am      8 UNK        -0.4734 
     50 CA         23.8288  -29.9388  -44.3695 C.3       8 UNK         0.0238 
     51 CB         22.9733  -28.6622  -44.4190 C.3       8 UNK        -0.1912 
     52 C          22.9369  -31.1835  -44.2020 C.2       8 UNK         0.5038 
     53 O          22.4567  -31.7246  -45.1979 O.2       8 UNK        -0.5046 
     54 N          22.7574  -31.6196  -42.9493 N.am      9 UNK        -0.4200 
     55 CA         22.0227  -32.8316  -42.5620 C.3       9 UNK         0.0839 
     56 C          22.8216  -34.1542  -42.7572 C.2       9 UNK         0.5513 
     57 N          24.0853  -34.1266  -43.1647 N.am      9 UNK        -0.7519 
     58 O          22.2740  -35.2339  -42.5494 O.2       9 UNK        -0.4960 
     59 C59        21.4501  -32.7147  -41.1235 C.3       10 UNK        -0.0876 
     60 S60        20.3490  -31.2699  -40.9045 S.3       10 UNK        -0.2414 
     61 C61        18.7082  -32.0052  -41.2207 C.3       10 UNK         0.0169 
     62 H62        21.2906  -26.8349  -49.9263 H         1 UNK         0.0903 
     63 H63        21.7351  -25.1270  -49.9460 H         1 UNK         0.0903 
     64 H64        22.9024  -26.3377  -49.4080 H         1 UNK         0.0903 
     65 H65        19.9515  -27.3313  -48.2078 H         1 UNK         0.3096 
     66 H66        20.5355  -26.7065  -45.5022 H         1 UNK         0.1121 
     67 H67        18.3944  -27.8461  -45.0083 H         1 UNK         0.0849 
     68 H68        17.9578  -27.8330  -46.7020 H         1 UNK         0.0849 
     69 H69        17.5498  -30.4328  -46.8057 H         1 UNK         0.0865 
     70 H70        18.7061  -31.6452  -46.3138 H         1 UNK         0.0865 
     71 H71        19.3503  -31.8457  -43.8620 H         1 UNK         0.1346 
     72 H72        16.4089  -30.5163  -41.0323 H         1 UNK         0.1412 
     73 H73        16.0806  -29.4092  -45.1620 H         1 UNK         0.1426 
     74 H74        14.4549  -29.2920  -41.7946 H         1 UNK         0.0716 
     75 H75        14.0938  -29.2966  -43.5022 H         1 UNK         0.0716 
     76 H76        15.8851  -27.7570  -40.6222 H         1 UNK         0.0695 
     77 H77        15.9438  -26.0480  -40.9471 H         1 UNK         0.0695 
     78 H78        17.9734  -28.0563  -42.0834 H         1 UNK         0.0983 
     79 H79        17.6051  -25.2859  -42.6507 H         1 UNK         0.3095 
     80 H80        19.5471  -23.8746  -43.0892 H         1 UNK         0.0454 
     81 H81        21.8857  -24.3658  -43.0393 H         1 UNK         0.0851 
     82 H82        21.5516  -23.6546  -44.6048 H         1 UNK         0.0851 
     83 H83        21.8334  -25.3832  -44.4543 H         1 UNK         0.0851 
     84 H84        18.4725  -23.7325  -44.9417 H         1 UNK         0.2976 
     85 H85        18.6324  -29.1026  -40.2790 H         1 UNK         0.3116 
     86 H86        19.6005  -29.6100  -38.3739 H         1 UNK         0.0646 
     87 H87        18.4228  -27.0427  -37.1942 H         1 UNK         0.0847 
     88 H88        18.9633  -28.4557  -36.3038 H         1 UNK         0.0847 
     89 H89        17.5599  -28.5727  -37.3495 H         1 UNK         0.0847 
     90 H90        21.0635  -27.8554  -40.3336 H         1 UNK         0.3040 
     91 H91        23.0274  -26.3874  -38.7657 H         1 UNK         0.1015 
     92 H92        22.9707  -27.1738  -41.7289 H         1 UNK         0.0786 
     93 H93        24.0746  -26.0171  -40.9967 H         1 UNK         0.0786 
     94 H94        22.3554  -25.6709  -41.0469 H         1 UNK         0.0786 
     95 H95        22.5984  -29.6324  -39.1863 H         1 UNK         0.3172 
     96 H96        23.6793  -31.4803  -38.7238 H         1 UNK         0.0595 
     97 H97        26.0511  -29.8072  -37.7484 H         1 UNK         0.0839 
     98 H98        25.7799  -31.5125  -37.4375 H         1 UNK         0.0839 
     99 H99        24.6766  -30.3197  -36.7716 H         1 UNK         0.0839 
    100 H100       25.9822  -29.2530  -40.3080 H         1 UNK         0.2998 
    101 H101       27.3933  -31.2784  -41.7937 H         1 UNK         0.0822 
    102 H102       28.4046  -29.0688  -41.3084 H         1 UNK         0.0787 
    103 H103       28.3213  -29.3158  -43.0449 H         1 UNK         0.0787 
    104 H104       27.1634  -28.2519  -42.2566 H         1 UNK         0.0787 
    105 H105       24.6920  -29.0795  -42.6237 H         1 UNK         0.3055 
    106 H106       24.3560  -30.0362  -45.3214 H         1 UNK         0.1106 
    107 H107       22.3391  -28.6608  -45.3051 H         1 UNK         0.0828 
    108 H108       22.3156  -28.5805  -43.5531 H         1 UNK         0.0828 
    109 H109       23.5878  -27.7632  -44.4665 H         1 UNK         0.0828 
    110 H110       23.2218  -31.1281  -42.2025 H         1 UNK         0.2931 
    111 H111       21.1715  -32.9248  -43.2360 H         1 UNK         0.0412 
    112 H112       24.5826  -34.9943  -43.2874 H         1 UNK         0.3472 
    113 H113       24.5571  -33.2484  -43.3241 H         1 UNK         0.3472 
    114 H114       20.9106  -33.6210  -40.8431 H         1 UNK         0.0970 
    115 H115       22.2664  -32.6310  -40.4049 H         1 UNK         0.0970 
    116 H116       18.8028  -33.0527  -41.5085 H         1 UNK         0.0612 
    117 H117       18.1375  -31.9953  -40.2910 H         1 UNK         0.0612 
@<TRIPOS>BOND
     1    1    2 1    
     2    1   62 1    
     3    1   63 1    
     4    1   64 1    
     5    2    3 2    
     6    2    4 am   BACKBONE|DICT|INTERRES
     7    4    5 1    
     8    4   65 1    
     9    5    6 1    
    10    5   25 1    
    11    5   66 1    
    12    6    7 1    
    13    6   67 1    
    14    6   68 1    
    15    7    8 1    
    16    8    9 1    
    17    8   69 1    
    18    8   70 1    
    19    9   10 ar   
    20    9   14 ar   
    21   10   11 ar   
    22   10   71 1    
    23   11   12 ar   
    24   11   61 1    
    25   12   13 ar   
    26   12   72 1    
    27   13   14 ar   
    28   13   15 1    
    29   14   73 1    
    30   15   16 1    
    31   15   74 1    
    32   15   75 1    
    33   16   17 1    
    34   17   18 1    
    35   17   76 1    
    36   17   77 1    
    37   18   19 1    
    38   18   27 1    
    39   18   78 1    
    40   19   20 am   BACKBONE|DICT|INTERRES
    41   19   79 1    
    42   20   21 2    
    43   20   22 1    
    44   22   23 1    
    45   22   24 1    
    46   22   80 1    
    47   23   81 1    
    48   23   82 1    
    49   23   83 1    
    50   24   25 am   BACKBONE|DICT|INTERRES
    51   24   84 1    
    52   25   26 2    
    53   27   28 2    
    54   27   29 am   BACKBONE|DICT|INTERRES
    55   29   30 1    
    56   29   85 1    
    57   30   31 1    
    58   30   32 1    
    59   30   86 1    
    60   31   87 1    
    61   31   88 1    
    62   31   89 1    
    63   32   33 2    
    64   32   34 am   BACKBONE|DICT|INTERRES
    65   34   35 1    
    66   34   90 1    
    67   35   36 1    
    68   35   37 1    
    69   35   91 1    
    70   36   92 1    
    71   36   93 1    
    72   36   94 1    
    73   37   38 2    
    74   37   39 am   BACKBONE|DICT|INTERRES
    75   39   40 1    
    76   39   95 1    
    77   40   41 1    
    78   40   42 1    
    79   40   96 1    
    80   41   97 1    
    81   41   98 1    
    82   41   99 1    
    83   42   43 2    
    84   42   44 am   BACKBONE|DICT|INTERRES
    85   44   45 1    
    86   44  100 1    
    87   45   46 1    
    88   45   47 1    
    89   45  101 1    
    90   46  102 1    
    91   46  103 1    
    92   46  104 1    
    93   47   48 2    
    94   47   49 am   BACKBONE|DICT|INTERRES
    95   49   50 1    
    96   49  105 1    
    97   50   51 1    
    98   50   52 1    
    99   50  106 1    
   100   51  107 1    
   101   51  108 1    
   102   51  109 1    
   103   52   53 2    
   104   52   54 am   BACKBONE|DICT|INTERRES
   105   54   55 1    
   106   54  110 1    
   107   55   56 1    
   108   55   59 1    
   109   55  111 1    
   110   56   57 am   BACKBONE|DICT|INTERRES
   111   56   58 2    
   112   57  112 1    
   113   57  113 1    
   114   59   60 1    
   115   59  114 1    
   116   59  115 1    
   117   60   61 1    
   118   61  116 1    
   119   61  117 1    
@<TRIPOS>SUBSTRUCTURE
     1 UNK         1 GROUP             0       ****    0 ROOT    
