@<TRIPOS>MOLECULE
3R8
117   119    1
SMALL
USER_CHARGES


@<TRIPOS>ATOM
      1 CA         14.8889  -24.9190  -41.3796 C.3       0 UNK        -0.2013 
      2 C          15.4514  -24.7334  -42.7810 C.2       0 UNK         0.4866 
      3 O          15.2249  -23.6923  -43.3990 O.2       0 UNK        -0.5176 
      4 N          16.1748  -25.7378  -43.2907 N.am      1 UNK        -0.4884 
      5 CA         16.8360  -25.7088  -44.5989 C.3       1 UNK         0.0853 
      6 C6         17.3020  -27.1189  -45.0357 C.3       10 UNK        -0.0849 
      7 S7         15.9198  -28.2395  -45.4399 S.3       10 UNK        -0.2776 
      8 C8         16.3930  -29.7838  -44.5756 C.3       10 UNK         0.0316 
      9 C9         17.7820  -30.3454  -44.9010 C.ar      10 UNK        -0.0863 
     10 C10        18.3514  -31.2668  -44.0144 C.ar      10 UNK        -0.1009 
     11 C11        19.6345  -31.7754  -44.2360 C.ar      10 UNK        -0.0712 
     12 C12        20.3648  -31.3425  -45.3445 C.ar      10 UNK        -0.0894 
     13 C13        19.8097  -30.4331  -46.2469 C.ar      10 UNK        -0.0745 
     14 C14        18.5076  -29.9681  -46.0401 C.ar      10 UNK        -0.0972 
     15 C15        20.6312  -29.9353  -47.4294 C.3       10 UNK         0.0209 
     16 S16        20.8758  -28.1270  -47.4041 S.3       10 UNK        -0.2568 
     17 C17        21.5367  -27.8450  -45.7230 C.3       10 UNK        -0.0983 
     18 CA         21.9298  -26.3668  -45.4690 C.3       3 UNK         0.0876 
     19 N          20.8351  -25.4529  -45.8120 N.am      3 UNK        -0.4424 
     20 C          20.8878  -24.1150  -45.8686 C.2       2 UNK         0.4918 
     21 O          21.9246  -23.4637  -45.7440 O.2       2 UNK        -0.4875 
     22 CA         19.5459  -23.3757  -46.0572 C.3       2 UNK         0.0481 
     23 CB         19.4447  -22.8073  -47.4817 C.3       2 UNK        -0.1831 
     24 N          18.3574  -24.1978  -45.7810 N.am      2 UNK        -0.4498 
     25 C          18.0473  -24.7538  -44.5989 C.2       1 UNK         0.5027 
     26 O          18.7320  -24.6203  -43.5801 O.2       1 UNK        -0.4969 
     27 C          22.4312  -26.1866  -44.0152 C.2       3 UNK         0.5005 
     28 O          23.5286  -26.6504  -43.7037 O.2       3 UNK        -0.5279 
     29 N          21.6318  -25.5299  -43.1536 N.am      4 UNK        -0.4463 
     30 CA         21.9695  -25.0580  -41.8026 C.3       4 UNK         0.0283 
     31 CB         23.0035  -23.9151  -41.8856 C.3       4 UNK        -0.1875 
     32 C          22.3997  -26.1676  -40.8228 C.2       4 UNK         0.4949 
     33 O          23.1908  -25.9083  -39.9148 O.2       4 UNK        -0.5039 
     34 N          21.8689  -27.3818  -41.0299 N.am      5 UNK        -0.4663 
     35 CA         22.1467  -28.6103  -40.2762 C.3       5 UNK         0.0242 
     36 CB         21.6072  -28.5038  -38.8340 C.3       5 UNK        -0.1982 
     37 C          23.6245  -29.0535  -40.3325 C.2       5 UNK         0.5017 
     38 O          24.1181  -29.6534  -39.3762 O.2       5 UNK        -0.5012 
     39 N          24.3082  -28.7722  -41.4542 N.am      6 UNK        -0.4439 
     40 CA         25.7231  -29.0983  -41.6823 C.3       6 UNK         0.0297 
     41 CB         26.1772  -28.4943  -43.0203 C.3       6 UNK        -0.2006 
     42 C          26.0553  -30.6028  -41.6357 C.2       6 UNK         0.4892 
     43 O          27.1865  -30.9555  -41.3014 O.2       6 UNK        -0.5089 
     44 N          25.0691  -31.4552  -41.9442 N.am      7 UNK        -0.4243 
     45 CA         25.1558  -32.9162  -41.8659 C.3       7 UNK         0.0196 
     46 CB         24.5257  -33.5159  -43.1371 C.3       7 UNK        -0.2007 
     47 C          24.4971  -33.4617  -40.5820 C.2       7 UNK         0.5020 
     48 O          24.0519  -34.6103  -40.5733 O.2       7 UNK        -0.5147 
     49 N          24.4040  -32.6288  -39.5330 N.am      8 UNK        -0.4734 
     50 CA         23.7325  -32.8309  -38.2382 C.3       8 UNK         0.0238 
     51 CB         24.2500  -34.0752  -37.4893 C.3       8 UNK        -0.1912 
     52 C          22.1988  -32.8222  -38.3488 C.2       8 UNK         0.5038 
     53 O          21.5494  -32.0795  -37.6120 O.2       8 UNK        -0.5046 
     54 N          21.6647  -33.5984  -39.2986 N.am      9 UNK        -0.4200 
     55 CA         20.2653  -33.6031  -39.7503 C.3       9 UNK         0.0839 
     56 C          19.2499  -34.0049  -38.6362 C.2       9 UNK         0.5513 
     57 N          17.9824  -33.6281  -38.7487 N.am      9 UNK        -0.7519 
     58 O          19.5867  -34.7162  -37.6912 O.2       9 UNK        -0.4960 
     59 C59        19.9033  -32.2965  -40.5217 C.3       10 UNK        -0.0876 
     60 S60        21.0700  -31.9644  -41.8899 S.3       10 UNK        -0.2414 
     61 C61        20.2431  -32.7890  -43.2818 C.3       10 UNK         0.0169 
     62 H62        13.8020  -24.8434  -41.3983 H         1 UNK         0.0903 
     63 H63        15.1539  -25.8887  -40.9584 H         1 UNK         0.0903 
     64 H64        15.2733  -24.1448  -40.7160 H         1 UNK         0.0903 
     65 H65        16.3389  -26.5648  -42.7353 H         1 UNK         0.3096 
     66 H66        16.1149  -25.3352  -45.3300 H         1 UNK         0.1121 
     67 H67        17.9335  -27.5666  -44.2652 H         1 UNK         0.0849 
     68 H68        17.9202  -27.0601  -45.9336 H         1 UNK         0.0849 
     69 H69        16.3209  -29.6013  -43.5021 H         1 UNK         0.0865 
     70 H70        15.6495  -30.5477  -44.8063 H         1 UNK         0.0865 
     71 H71        17.7978  -31.5848  -43.1415 H         1 UNK         0.1346 
     72 H72        21.3686  -31.7135  -45.5010 H         1 UNK         0.1412 
     73 H73        18.0861  -29.2787  -46.7570 H         1 UNK         0.1426 
     74 H74        20.1275  -30.2121  -48.3564 H         1 UNK         0.0716 
     75 H75        21.6094  -30.4181  -47.4543 H         1 UNK         0.0716 
     76 H76        22.3987  -28.4997  -45.5792 H         1 UNK         0.0695 
     77 H77        20.7828  -28.1634  -45.0002 H         1 UNK         0.0695 
     78 H78        22.7704  -26.1207  -46.1212 H         1 UNK         0.0983 
     79 H79        19.9470  -25.8939  -45.9907 H         1 UNK         0.3095 
     80 H80        19.5379  -22.5401  -45.3545 H         1 UNK         0.0454 
     81 H81        19.4294  -23.5981  -48.2328 H         1 UNK         0.0851 
     82 H82        20.2955  -22.1624  -47.7065 H         1 UNK         0.0851 
     83 H83        18.5449  -22.2050  -47.6074 H         1 UNK         0.0851 
     84 H84        17.7480  -24.3689  -46.5691 H         1 UNK         0.2976 
     85 H85        20.7188  -25.2347  -43.4859 H         1 UNK         0.3116 
     86 H86        21.0490  -24.6389  -41.3935 H         1 UNK         0.0646 
     87 H87        22.6748  -23.1314  -42.5683 H         1 UNK         0.0847 
     88 H88        23.9735  -24.2749  -42.2308 H         1 UNK         0.0847 
     89 H89        23.1565  -23.4498  -40.9111 H         1 UNK         0.0847 
     90 H90        21.2338  -27.4782  -41.8100 H         1 UNK         0.3040 
     91 H91        21.5818  -29.3980  -40.7720 H         1 UNK         0.1015 
     92 H92        22.1640  -27.7745  -38.2451 H         1 UNK         0.0786 
     93 H93        21.6818  -29.4608  -38.3171 H         1 UNK         0.0786 
     94 H94        20.5565  -28.2145  -38.8232 H         1 UNK         0.0786 
     95 H95        23.8519  -28.2211  -42.1733 H         1 UNK         0.3172 
     96 H96        26.2959  -28.6201  -40.8851 H         1 UNK         0.0595 
     97 H97        25.5925  -28.8794  -43.8567 H         1 UNK         0.0839 
     98 H98        27.2251  -28.7231  -43.2201 H         1 UNK         0.0839 
     99 H99        26.0815  -27.4083  -43.0169 H         1 UNK         0.0839 
    100 H100       24.1666  -31.0717  -42.1875 H         1 UNK         0.2998 
    101 H101       26.2019  -33.2277  -41.8361 H         1 UNK         0.0822 
    102 H102       24.6358  -34.6009  -43.1578 H         1 UNK         0.0787 
    103 H103       23.4606  -33.2948  -43.2030 H         1 UNK         0.0787 
    104 H104       25.0044  -33.1286  -44.0367 H         1 UNK         0.0787 
    105 H105       24.7341  -31.6796  -39.6713 H         1 UNK         0.3055 
    106 H106       24.0001  -31.9590  -37.6379 H         1 UNK         0.1106 
    107 H107       23.9826  -35.0038  -37.9937 H         1 UNK         0.0828 
    108 H108       23.8262  -34.1236  -36.4854 H         1 UNK         0.0828 
    109 H109       25.3344  -34.0510  -37.3824 H         1 UNK         0.0828 
    110 H110       22.3081  -34.1709  -39.8359 H         1 UNK         0.2931 
    111 H111       20.2111  -34.4221  -40.4682 H         1 UNK         0.0412 
    112 H112       17.3268  -33.9116  -38.0368 H         1 UNK         0.3472 
    113 H113       17.6641  -33.0700  -39.5243 H         1 UNK         0.3472 
    114 H114       19.9173  -31.4413  -39.8439 H         1 UNK         0.0970 
    115 H115       18.8934  -32.3404  -40.9300 H         1 UNK         0.0970 
    116 H116       20.9771  -33.4019  -43.8069 H         1 UNK         0.0612 
    117 H117       19.4791  -33.4810  -42.9250 H         1 UNK         0.0612 
@<TRIPOS>BOND
     1    1    2 1    
     2    1   62 1    
     3    1   63 1    
     4    1   64 1    
     5    2    3 2    
     6    2    4 am   BACKBONE|DICT|INTERRES
     7    4    5 1    
     8    4   65 1    
     9    5    6 1    
    10    5   25 1    
    11    5   66 1    
    12    6    7 1    
    13    6   67 1    
    14    6   68 1    
    15    7    8 1    
    16    8    9 1    
    17    8   69 1    
    18    8   70 1    
    19    9   10 ar   
    20    9   14 ar   
    21   10   11 ar   
    22   10   71 1    
    23   11   12 ar   
    24   11   61 1    
    25   12   13 ar   
    26   12   72 1    
    27   13   14 ar   
    28   13   15 1    
    29   14   73 1    
    30   15   16 1    
    31   15   74 1    
    32   15   75 1    
    33   16   17 1    
    34   17   18 1    
    35   17   76 1    
    36   17   77 1    
    37   18   19 1    
    38   18   27 1    
    39   18   78 1    
    40   19   20 am   BACKBONE|DICT|INTERRES
    41   19   79 1    
    42   20   21 2    
    43   20   22 1    
    44   22   23 1    
    45   22   24 1    
    46   22   80 1    
    47   23   81 1    
    48   23   82 1    
    49   23   83 1    
    50   24   25 am   BACKBONE|DICT|INTERRES
    51   24   84 1    
    52   25   26 2    
    53   27   28 2    
    54   27   29 am   BACKBONE|DICT|INTERRES
    55   29   30 1    
    56   29   85 1    
    57   30   31 1    
    58   30   32 1    
    59   30   86 1    
    60   31   87 1    
    61   31   88 1    
    62   31   89 1    
    63   32   33 2    
    64   32   34 am   BACKBONE|DICT|INTERRES
    65   34   35 1    
    66   34   90 1    
    67   35   36 1    
    68   35   37 1    
    69   35   91 1    
    70   36   92 1    
    71   36   93 1    
    72   36   94 1    
    73   37   38 2    
    74   37   39 am   BACKBONE|DICT|INTERRES
    75   39   40 1    
    76   39   95 1    
    77   40   41 1    
    78   40   42 1    
    79   40   96 1    
    80   41   97 1    
    81   41   98 1    
    82   41   99 1    
    83   42   43 2    
    84   42   44 am   BACKBONE|DICT|INTERRES
    85   44   45 1    
    86   44  100 1    
    87   45   46 1    
    88   45   47 1    
    89   45  101 1    
    90   46  102 1    
    91   46  103 1    
    92   46  104 1    
    93   47   48 2    
    94   47   49 am   BACKBONE|DICT|INTERRES
    95   49   50 1    
    96   49  105 1    
    97   50   51 1    
    98   50   52 1    
    99   50  106 1    
   100   51  107 1    
   101   51  108 1    
   102   51  109 1    
   103   52   53 2    
   104   52   54 am   BACKBONE|DICT|INTERRES
   105   54   55 1    
   106   54  110 1    
   107   55   56 1    
   108   55   59 1    
   109   55  111 1    
   110   56   57 am   BACKBONE|DICT|INTERRES
   111   56   58 2    
   112   57  112 1    
   113   57  113 1    
   114   59   60 1    
   115   59  114 1    
   116   59  115 1    
   117   60   61 1    
   118   61  116 1    
   119   61  117 1    
@<TRIPOS>SUBSTRUCTURE
     1 UNK         1 GROUP             0       ****    0 ROOT    
