@<TRIPOS>MOLECULE
3R8
117   119    1
SMALL
USER_CHARGES


@<TRIPOS>ATOM
      1 CA         21.2387  -25.8633  -49.9474 C.3       0 UNK        -0.2013 
      2 C          21.4972  -26.0278  -48.4570 C.2       0 UNK         0.4866 
      3 O          22.4471  -25.4452  -47.9335 O.2       0 UNK        -0.5176 
      4 N          20.6650  -26.8234  -47.7745 N.am      1 UNK        -0.4884 
      5 CA         20.7299  -27.0686  -46.3308 C.3       1 UNK         0.0853 
      6 C6         19.7663  -28.2029  -45.9029 C.3       10 UNK        -0.0849 
      7 S7         20.2106  -29.8406  -46.5672 S.3       10 UNK        -0.2776 
      8 C8         18.6652  -30.7652  -46.2575 C.3       10 UNK         0.0316 
      9 C9         18.2545  -30.7074  -44.7914 C.ar      10 UNK        -0.0863 
     10 C10        18.9647  -31.4363  -43.8362 C.ar      10 UNK        -0.1009 
     11 C11        18.6602  -31.3183  -42.4766 C.ar      10 UNK        -0.0712 
     12 C12        17.6049  -30.4930  -42.0767 C.ar      10 UNK        -0.0894 
     13 C13        16.8762  -29.7691  -43.0259 C.ar      10 UNK        -0.0745 
     14 C14        17.2012  -29.8851  -44.3811 C.ar      10 UNK        -0.0972 
     15 C15        15.7521  -28.8393  -42.5967 C.3       10 UNK         0.0209 
     16 S16        16.3070  -27.1045  -42.5395 S.3       10 UNK        -0.2568 
     17 C17        17.1836  -27.0301  -40.9398 C.3       10 UNK        -0.0983 
     18 CA         18.7268  -27.0483  -41.0813 C.3       3 UNK         0.0876 
     19 N          19.2157  -25.9724  -41.9547 N.am      3 UNK        -0.4424 
     20 C          20.4931  -25.6439  -42.1889 C.2       2 UNK         0.4918 
     21 O          21.4610  -26.1399  -41.6083 O.2       2 UNK        -0.4875 
     22 CA         20.7437  -24.6814  -43.3531 C.3       2 UNK         0.0481 
     23 CB         21.8638  -23.6752  -43.0428 C.3       2 UNK        -0.1831 
     24 N          21.1424  -25.5324  -44.4692 N.am      2 UNK        -0.4498 
     25 C          20.3723  -25.8021  -45.5282 C.2       1 UNK         0.5027 
     26 O          19.3629  -25.1591  -45.8291 O.2       1 UNK        -0.4969 
     27 C          19.3955  -27.0476  -39.6893 C.2       3 UNK         0.5005 
     28 O          19.1620  -26.1282  -38.9023 O.2       3 UNK        -0.5279 
     29 N          20.2338  -28.0661  -39.4412 N.am      4 UNK        -0.4463 
     30 CA         21.0306  -28.3124  -38.2300 C.3       4 UNK         0.0283 
     31 CB         20.1207  -28.5028  -36.9977 C.3       4 UNK        -0.1875 
     32 C          22.1623  -27.2949  -37.9612 C.2       4 UNK         0.4949 
     33 O          22.8007  -27.3863  -36.9117 O.2       4 UNK        -0.5039 
     34 N          22.4208  -26.3727  -38.8973 N.am      5 UNK        -0.4663 
     35 CA         23.5032  -25.3864  -38.8314 C.3       5 UNK         0.0242 
     36 CB         22.9328  -23.9854  -39.1074 C.3       5 UNK        -0.1982 
     37 C          24.6171  -25.7253  -39.8324 C.2       5 UNK         0.5017 
     38 O          25.7938  -25.6492  -39.4775 O.2       5 UNK        -0.5012 
     39 N          24.2280  -26.1124  -41.0519 N.am      6 UNK        -0.4439 
     40 CA         25.0986  -26.5541  -42.1350 C.3       6 UNK         0.0297 
     41 CB         25.7339  -25.3497  -42.8581 C.3       6 UNK        -0.2006 
     42 C          24.2333  -27.4167  -43.0559 C.2       6 UNK         0.4892 
     43 O          23.6516  -26.9085  -44.0176 O.2       6 UNK        -0.5089 
     44 N          24.0922  -28.6920  -42.6870 N.am      7 UNK        -0.4243 
     45 CA         23.2298  -29.6685  -43.3401 C.3       7 UNK         0.0196 
     46 CB         21.7679  -29.4005  -42.9475 C.3       7 UNK        -0.2007 
     47 C          23.6637  -31.0796  -42.9215 C.2       7 UNK         0.5020 
     48 O          24.4082  -31.2253  -41.9482 O.2       7 UNK        -0.5147 
     49 N          23.1903  -32.0859  -43.6658 N.am      8 UNK        -0.4734 
     50 CA         23.4581  -33.5060  -43.4270 C.3       8 UNK         0.0238 
     51 CB         23.6312  -34.2159  -44.7868 C.3       8 UNK        -0.1912 
     52 C          22.3565  -34.1152  -42.5378 C.2       8 UNK         0.5038 
     53 O          22.3678  -33.8784  -41.3307 O.2       8 UNK        -0.5046 
     54 N          21.4458  -34.8863  -43.1496 N.am      9 UNK        -0.4200 
     55 CA         20.2765  -35.5796  -42.5725 C.3       9 UNK         0.0839 
     56 C          20.5268  -36.5658  -41.3889 C.2       9 UNK         0.5513 
     57 N          21.7636  -36.9336  -41.0795 N.am      9 UNK        -0.7519 
     58 O          19.5806  -37.0558  -40.7773 O.2       9 UNK        -0.4960 
     59 C59        19.0238  -34.6638  -42.4175 C.3       10 UNK        -0.0876 
     60 S60        18.9154  -33.6326  -40.9094 S.3       10 UNK        -0.2414 
     61 C61        19.5366  -32.0053  -41.4401 C.3       10 UNK         0.0169 
     62 H62        20.3771  -26.4426  -50.2789 H         1 UNK         0.0903 
     63 H63        21.0533  -24.8155  -50.1823 H         1 UNK         0.0903 
     64 H64        22.1074  -26.1919  -50.5174 H         1 UNK         0.0903 
     65 H65        19.9004  -27.2743  -48.2562 H         1 UNK         0.3096 
     66 H66        21.7531  -27.3623  -46.0830 H         1 UNK         0.1121 
     67 H67        18.7448  -27.9659  -46.2084 H         1 UNK         0.0849 
     68 H68        19.7376  -28.2925  -44.8152 H         1 UNK         0.0849 
     69 H69        17.8744  -30.3679  -46.8958 H         1 UNK         0.0865 
     70 H70        18.8046  -31.8050  -46.5568 H         1 UNK         0.0865 
     71 H71        19.7962  -32.0519  -44.1503 H         1 UNK         0.1346 
     72 H72        17.3705  -30.3934  -41.0257 H         1 UNK         0.1412 
     73 H73        16.6513  -29.3079  -45.1120 H         1 UNK         0.1426 
     74 H74        15.3437  -29.1371  -41.6298 H         1 UNK         0.0716 
     75 H75        14.9284  -28.9183  -43.3079 H         1 UNK         0.0716 
     76 H76        16.8473  -27.8551  -40.3091 H         1 UNK         0.0695 
     77 H77        16.8616  -26.1178  -40.4337 H         1 UNK         0.0695 
     78 H78        18.9951  -27.9799  -41.5833 H         1 UNK         0.0983 
     79 H79        18.4987  -25.5187  -42.5025 H         1 UNK         0.3095 
     80 H80        19.8296  -24.1261  -43.5730 H         1 UNK         0.0454 
     81 H81        22.7926  -24.1692  -42.7611 H         1 UNK         0.0851 
     82 H82        21.5785  -23.0190  -42.2202 H         1 UNK         0.0851 
     83 H83        22.0736  -23.0421  -43.9048 H         1 UNK         0.0851 
     84 H84        21.9747  -26.0980  -44.3043 H         1 UNK         0.2976 
     85 H85        20.3794  -28.7391  -40.1797 H         1 UNK         0.3116 
     86 H86        21.5353  -29.2636  -38.4058 H         1 UNK         0.0646 
     87 H87        19.6306  -27.5733  -36.7070 H         1 UNK         0.0847 
     88 H88        20.6942  -28.8465  -36.1360 H         1 UNK         0.0847 
     89 H89        19.3469  -29.2470  -37.1851 H         1 UNK         0.0847 
     90 H90        21.8626  -26.3753  -39.7456 H         1 UNK         0.3040 
     91 H91        23.9512  -25.3750  -37.8352 H         1 UNK         0.1015 
     92 H92        22.4558  -23.9263  -40.0853 H         1 UNK         0.0786 
     93 H93        23.7192  -23.2300  -39.0794 H         1 UNK         0.0786 
     94 H94        22.1902  -23.7093  -38.3586 H         1 UNK         0.0786 
     95 H95        23.2305  -26.1566  -41.2587 H         1 UNK         0.3172 
     96 H96        25.8973  -27.1777  -41.7275 H         1 UNK         0.0595 
     97 H97        24.9844  -24.6809  -43.2801 H         1 UNK         0.0839 
     98 H98        26.3674  -25.6844  -43.6802 H         1 UNK         0.0839 
     99 H99        26.3604  -24.7657  -42.1840 H         1 UNK         0.0839 
    100 H100       24.6112  -29.0604  -41.8986 H         1 UNK         0.2998 
    101 H101       23.3454  -29.5744  -44.4224 H         1 UNK         0.0822 
    102 H102       21.4726  -28.3738  -43.1547 H         1 UNK         0.0787 
    103 H103       21.1060  -30.0380  -43.5238 H         1 UNK         0.0787 
    104 H104       21.5901  -29.5955  -41.8900 H         1 UNK         0.0787 
    105 H105       22.5708  -31.8679  -44.4334 H         1 UNK         0.3055 
    106 H106       24.3969  -33.6168  -42.8787 H         1 UNK         0.1106 
    107 H107       23.8048  -35.2853  -44.6566 H         1 UNK         0.0828 
    108 H108       22.7645  -34.0917  -45.4372 H         1 UNK         0.0828 
    109 H109       24.4958  -33.8209  -45.3208 H         1 UNK         0.0828 
    110 H110       21.5689  -35.0354  -44.1402 H         1 UNK         0.2931 
    111 H111       20.0101  -36.2656  -43.3777 H         1 UNK         0.0412 
    112 H112       21.9111  -37.5870  -40.3262 H         1 UNK         0.3472 
    113 H113       22.5508  -36.5322  -41.5625 H         1 UNK         0.3472 
    114 H114       18.9027  -34.0477  -43.3055 H         1 UNK         0.0970 
    115 H115       18.1349  -35.2968  -42.4095 H         1 UNK         0.0970 
    116 H116       19.6176  -31.3699  -40.5571 H         1 UNK         0.0612 
    117 H117       20.5501  -32.0995  -41.8232 H         1 UNK         0.0612 
@<TRIPOS>BOND
     1    1    2 1    
     2    1   62 1    
     3    1   63 1    
     4    1   64 1    
     5    2    3 2    
     6    2    4 am   BACKBONE|DICT|INTERRES
     7    4    5 1    
     8    4   65 1    
     9    5    6 1    
    10    5   25 1    
    11    5   66 1    
    12    6    7 1    
    13    6   67 1    
    14    6   68 1    
    15    7    8 1    
    16    8    9 1    
    17    8   69 1    
    18    8   70 1    
    19    9   10 ar   
    20    9   14 ar   
    21   10   11 ar   
    22   10   71 1    
    23   11   12 ar   
    24   11   61 1    
    25   12   13 ar   
    26   12   72 1    
    27   13   14 ar   
    28   13   15 1    
    29   14   73 1    
    30   15   16 1    
    31   15   74 1    
    32   15   75 1    
    33   16   17 1    
    34   17   18 1    
    35   17   76 1    
    36   17   77 1    
    37   18   19 1    
    38   18   27 1    
    39   18   78 1    
    40   19   20 am   BACKBONE|DICT|INTERRES
    41   19   79 1    
    42   20   21 2    
    43   20   22 1    
    44   22   23 1    
    45   22   24 1    
    46   22   80 1    
    47   23   81 1    
    48   23   82 1    
    49   23   83 1    
    50   24   25 am   BACKBONE|DICT|INTERRES
    51   24   84 1    
    52   25   26 2    
    53   27   28 2    
    54   27   29 am   BACKBONE|DICT|INTERRES
    55   29   30 1    
    56   29   85 1    
    57   30   31 1    
    58   30   32 1    
    59   30   86 1    
    60   31   87 1    
    61   31   88 1    
    62   31   89 1    
    63   32   33 2    
    64   32   34 am   BACKBONE|DICT|INTERRES
    65   34   35 1    
    66   34   90 1    
    67   35   36 1    
    68   35   37 1    
    69   35   91 1    
    70   36   92 1    
    71   36   93 1    
    72   36   94 1    
    73   37   38 2    
    74   37   39 am   BACKBONE|DICT|INTERRES
    75   39   40 1    
    76   39   95 1    
    77   40   41 1    
    78   40   42 1    
    79   40   96 1    
    80   41   97 1    
    81   41   98 1    
    82   41   99 1    
    83   42   43 2    
    84   42   44 am   BACKBONE|DICT|INTERRES
    85   44   45 1    
    86   44  100 1    
    87   45   46 1    
    88   45   47 1    
    89   45  101 1    
    90   46  102 1    
    91   46  103 1    
    92   46  104 1    
    93   47   48 2    
    94   47   49 am   BACKBONE|DICT|INTERRES
    95   49   50 1    
    96   49  105 1    
    97   50   51 1    
    98   50   52 1    
    99   50  106 1    
   100   51  107 1    
   101   51  108 1    
   102   51  109 1    
   103   52   53 2    
   104   52   54 am   BACKBONE|DICT|INTERRES
   105   54   55 1    
   106   54  110 1    
   107   55   56 1    
   108   55   59 1    
   109   55  111 1    
   110   56   57 am   BACKBONE|DICT|INTERRES
   111   56   58 2    
   112   57  112 1    
   113   57  113 1    
   114   59   60 1    
   115   59  114 1    
   116   59  115 1    
   117   60   61 1    
   118   61  116 1    
   119   61  117 1    
@<TRIPOS>SUBSTRUCTURE
     1 UNK         1 GROUP             0       ****    0 ROOT    
