@<TRIPOS>MOLECULE
3R8
117   119    1
SMALL
USER_CHARGES


@<TRIPOS>ATOM
      1 CA         14.1914  -22.2202  -45.9350 C.3       0 UNK        -0.2013 
      2 C          15.5498  -22.9051  -45.9492 C.2       0 UNK         0.4866 
      3 O          16.5421  -22.2856  -46.3328 O.2       0 UNK        -0.5176 
      4 N          15.6000  -24.1802  -45.5393 N.am      1 UNK        -0.4884 
      5 CA         16.8232  -24.9883  -45.4554 C.3       1 UNK         0.0853 
      6 C6         16.4805  -26.4877  -45.2602 C.3       10 UNK        -0.0849 
      7 S7         17.9045  -27.6003  -45.5108 S.3       10 UNK        -0.2776 
      8 C8         17.2141  -29.1878  -44.9443 C.3       10 UNK         0.0316 
      9 C9         18.1142  -29.8258  -43.8987 C.ar      10 UNK        -0.0863 
     10 C10        19.1503  -30.6775  -44.2924 C.ar      10 UNK        -0.1009 
     11 C11        19.9842  -31.2654  -43.3380 C.ar      10 UNK        -0.0712 
     12 C12        19.7924  -30.9774  -41.9837 C.ar      10 UNK        -0.0894 
     13 C13        18.7616  -30.1254  -41.5750 C.ar      10 UNK        -0.0745 
     14 C14        17.9128  -29.5675  -42.5390 C.ar      10 UNK        -0.0972 
     15 C15        18.5618  -29.8341  -40.0904 C.3       10 UNK         0.0209 
     16 S16        18.4176  -28.0546  -39.7105 S.3       10 UNK        -0.2568 
     17 C17        20.0594  -27.4140  -40.1920 C.3       10 UNK        -0.0983 
     18 CA         20.0706  -26.8258  -41.6297 C.3       3 UNK         0.0876 
     19 N          19.0282  -25.8227  -41.8720 N.am      3 UNK        -0.4424 
     20 C          18.9680  -24.5747  -41.3860 C.2       2 UNK         0.4918 
     21 O          19.7424  -24.1328  -40.5363 O.2       2 UNK        -0.4875 
     22 CA         17.8697  -23.6511  -41.9634 C.3       2 UNK         0.0481 
     23 CB         18.4018  -22.2233  -42.2058 C.3       2 UNK        -0.1831 
     24 N          17.2052  -24.1539  -43.1789 N.am      2 UNK        -0.4498 
     25 C          17.7746  -24.4752  -44.3540 C.2       1 UNK         0.5027 
     26 O          18.9859  -24.4123  -44.5719 O.2       1 UNK        -0.4969 
     27 C          21.4618  -26.3275  -42.0826 C.2       3 UNK         0.5005 
     28 O          22.4655  -26.6044  -41.4223 O.2       3 UNK        -0.5279 
     29 N          21.5026  -25.6140  -43.2225 N.am      4 UNK        -0.4463 
     30 CA         22.7023  -25.0148  -43.8263 C.3       4 UNK         0.0283 
     31 CB         22.2890  -24.2015  -45.0631 C.3       4 UNK        -0.1875 
     32 C          23.8223  -26.0110  -44.1875 C.2       4 UNK         0.4949 
     33 O          24.9672  -25.5933  -44.3606 O.2       4 UNK        -0.5039 
     34 N          23.4863  -27.3059  -44.2627 N.am      5 UNK        -0.4663 
     35 CA         24.4244  -28.4230  -44.3879 C.3       5 UNK         0.0242 
     36 CB         23.6237  -29.7014  -44.6848 C.3       5 UNK        -0.1982 
     37 C          25.3115  -28.6377  -43.1444 C.2       5 UNK         0.5017 
     38 O          26.3120  -29.3474  -43.2529 O.2       5 UNK        -0.5012 
     39 N          24.9258  -28.0669  -41.9903 N.am      6 UNK        -0.4439 
     40 CA         25.5588  -28.1289  -40.6632 C.3       6 UNK         0.0297 
     41 CB         27.0056  -27.5988  -40.6901 C.3       6 UNK        -0.2006 
     42 C          25.4772  -29.5079  -39.9828 C.2       6 UNK         0.4892 
     43 O          25.2107  -29.5696  -38.7816 O.2       6 UNK        -0.5089 
     44 N          25.6858  -30.5823  -40.7516 N.am      7 UNK        -0.4243 
     45 CA         25.4456  -31.9690  -40.3570 C.3       7 UNK         0.0196 
     46 CB         26.1039  -32.8943  -41.3942 C.3       7 UNK        -0.2007 
     47 C          23.9401  -32.2678  -40.2536 C.2       7 UNK         0.5020 
     48 O          23.1265  -31.5698  -40.8611 O.2       7 UNK        -0.5147 
     49 N          23.5972  -33.3300  -39.5150 N.am      8 UNK        -0.4734 
     50 CA         22.2164  -33.7990  -39.3463 C.3       8 UNK         0.0238 
     51 CB         22.1448  -34.7200  -38.1167 C.3       8 UNK        -0.1912 
     52 C          21.6469  -34.5141  -40.5868 C.2       8 UNK         0.5038 
     53 O          20.4253  -34.5951  -40.7065 O.2       8 UNK        -0.5046 
     54 N          22.5383  -35.0307  -41.4484 N.am      9 UNK        -0.4200 
     55 CA         22.2900  -35.7712  -42.7022 C.3       9 UNK         0.0839 
     56 C          21.3527  -37.0170  -42.6192 C.2       9 UNK         0.5513 
     57 N          21.1162  -37.5875  -41.4443 N.am      9 UNK        -0.7519 
     58 O          20.8738  -37.5104  -43.6375 O.2       9 UNK        -0.4960 
     59 C59        22.0401  -34.8520  -43.9363 C.3       10 UNK        -0.0876 
     60 S60        20.4720  -33.9162  -43.9224 S.3       10 UNK        -0.2414 
     61 C61        21.0908  -32.2148  -43.7658 C.3       10 UNK         0.0169 
     62 H62        13.9295  -21.8858  -46.9385 H         1 UNK         0.0903 
     63 H63        13.4022  -22.8839  -45.5824 H         1 UNK         0.0903 
     64 H64        14.2181  -21.3484  -45.2816 H         1 UNK         0.0903 
     65 H65        14.7455  -24.6373  -45.2520 H         1 UNK         0.3096 
     66 H66        17.3489  -24.8809  -46.4075 H         1 UNK         0.1121 
     67 H67        16.0533  -26.6622  -44.2705 H         1 UNK         0.0849 
     68 H68        15.7125  -26.7852  -45.9765 H         1 UNK         0.0849 
     69 H69        17.1026  -29.8529  -45.8021 H         1 UNK         0.0865 
     70 H70        16.2105  -29.0535  -44.5381 H         1 UNK         0.0865 
     71 H71        19.3042  -30.8896  -45.3418 H         1 UNK         0.1346 
     72 H72        20.4445  -31.4294  -41.2484 H         1 UNK         0.1412 
     73 H73        17.1082  -28.9143  -42.2296 H         1 UNK         0.1426 
     74 H74        19.3775  -30.2523  -39.4982 H         1 UNK         0.0716 
     75 H75        17.6525  -30.3363  -39.7581 H         1 UNK         0.0716 
     76 H76        20.7916  -28.2186  -40.0994 H         1 UNK         0.0695 
     77 H77        20.3517  -26.6519  -39.4678 H         1 UNK         0.0695 
     78 H78        19.8504  -27.6446  -42.3139 H         1 UNK         0.0983 
     79 H79        18.3320  -26.0825  -42.5540 H         1 UNK         0.3095 
     80 H80        17.0945  -23.5913  -41.1984 H         1 UNK         0.0454 
     81 H81        17.6210  -21.5688  -42.5931 H         1 UNK         0.0851 
     82 H82        19.2282  -22.2159  -42.9173 H         1 UNK         0.0851 
     83 H83        18.7664  -21.7754  -41.2806 H         1 UNK         0.0851 
     84 H84        16.2014  -24.2509  -43.1112 H         1 UNK         0.2976 
     85 H85        20.6246  -25.4002  -43.6861 H         1 UNK         0.3116 
     86 H86        23.1203  -24.3249  -43.0905 H         1 UNK         0.0646 
     87 H87        23.1539  -23.7304  -45.5324 H         1 UNK         0.0847 
     88 H88        21.5934  -23.4044  -44.7995 H         1 UNK         0.0847 
     89 H89        21.8092  -24.8286  -45.8156 H         1 UNK         0.0847 
     90 H90        22.5154  -27.5445  -44.1249 H         1 UNK         0.3040 
     91 H91        25.0880  -28.2194  -45.2311 H         1 UNK         0.1015 
     92 H92        22.9491  -29.9465  -43.8634 H         1 UNK         0.0786 
     93 H93        24.2864  -30.5563  -44.8273 H         1 UNK         0.0786 
     94 H94        23.0284  -29.5996  -45.5925 H         1 UNK         0.0786 
     95 H95        24.0517  -27.5451  -41.9989 H         1 UNK         0.3172 
     96 H96        24.9767  -27.4453  -40.0429 H         1 UNK         0.0595 
     97 H97        27.6696  -28.2444  -41.2653 H         1 UNK         0.0839 
     98 H98        27.4133  -27.5369  -39.6803 H         1 UNK         0.0839 
     99 H99        27.0531  -26.5987  -41.1210 H         1 UNK         0.0839 
    100 H100       25.9041  -30.4107  -41.7283 H         1 UNK         0.2998 
    101 H101       25.9066  -32.1364  -39.3812 H         1 UNK         0.0822 
    102 H102       25.6595  -32.7705  -42.3831 H         1 UNK         0.0787 
    103 H103       27.1722  -32.6946  -41.4813 H         1 UNK         0.0787 
    104 H104       25.9953  -33.9429  -41.1151 H         1 UNK         0.0787 
    105 H105       24.3199  -33.8533  -39.0402 H         1 UNK         0.3055 
    106 H106       21.5797  -32.9309  -39.1585 H         1 UNK         0.1106 
    107 H107       21.1239  -35.0652  -37.9463 H         1 UNK         0.0828 
    108 H108       22.7720  -35.6045  -38.2346 H         1 UNK         0.0828 
    109 H109       22.4621  -34.2003  -37.2125 H         1 UNK         0.0828 
    110 H110       23.5117  -34.9166  -41.2105 H         1 UNK         0.2931 
    111 H111       23.2588  -36.2323  -42.8983 H         1 UNK         0.0412 
    112 H112       21.4993  -37.1952  -40.5997 H         1 UNK         0.3472 
    113 H113       20.5235  -38.4017  -41.4009 H         1 UNK         0.3472 
    114 H114       22.8743  -34.1566  -44.0388 H         1 UNK         0.0970 
    115 H115       22.0607  -35.4457  -44.8518 H         1 UNK         0.0970 
    116 H116       21.5152  -31.8981  -44.7195 H         1 UNK         0.0612 
    117 H117       21.9031  -32.1895  -43.0403 H         1 UNK         0.0612 
@<TRIPOS>BOND
     1    1    2 1    
     2    1   62 1    
     3    1   63 1    
     4    1   64 1    
     5    2    3 2    
     6    2    4 am   BACKBONE|DICT|INTERRES
     7    4    5 1    
     8    4   65 1    
     9    5    6 1    
    10    5   25 1    
    11    5   66 1    
    12    6    7 1    
    13    6   67 1    
    14    6   68 1    
    15    7    8 1    
    16    8    9 1    
    17    8   69 1    
    18    8   70 1    
    19    9   10 ar   
    20    9   14 ar   
    21   10   11 ar   
    22   10   71 1    
    23   11   12 ar   
    24   11   61 1    
    25   12   13 ar   
    26   12   72 1    
    27   13   14 ar   
    28   13   15 1    
    29   14   73 1    
    30   15   16 1    
    31   15   74 1    
    32   15   75 1    
    33   16   17 1    
    34   17   18 1    
    35   17   76 1    
    36   17   77 1    
    37   18   19 1    
    38   18   27 1    
    39   18   78 1    
    40   19   20 am   BACKBONE|DICT|INTERRES
    41   19   79 1    
    42   20   21 2    
    43   20   22 1    
    44   22   23 1    
    45   22   24 1    
    46   22   80 1    
    47   23   81 1    
    48   23   82 1    
    49   23   83 1    
    50   24   25 am   BACKBONE|DICT|INTERRES
    51   24   84 1    
    52   25   26 2    
    53   27   28 2    
    54   27   29 am   BACKBONE|DICT|INTERRES
    55   29   30 1    
    56   29   85 1    
    57   30   31 1    
    58   30   32 1    
    59   30   86 1    
    60   31   87 1    
    61   31   88 1    
    62   31   89 1    
    63   32   33 2    
    64   32   34 am   BACKBONE|DICT|INTERRES
    65   34   35 1    
    66   34   90 1    
    67   35   36 1    
    68   35   37 1    
    69   35   91 1    
    70   36   92 1    
    71   36   93 1    
    72   36   94 1    
    73   37   38 2    
    74   37   39 am   BACKBONE|DICT|INTERRES
    75   39   40 1    
    76   39   95 1    
    77   40   41 1    
    78   40   42 1    
    79   40   96 1    
    80   41   97 1    
    81   41   98 1    
    82   41   99 1    
    83   42   43 2    
    84   42   44 am   BACKBONE|DICT|INTERRES
    85   44   45 1    
    86   44  100 1    
    87   45   46 1    
    88   45   47 1    
    89   45  101 1    
    90   46  102 1    
    91   46  103 1    
    92   46  104 1    
    93   47   48 2    
    94   47   49 am   BACKBONE|DICT|INTERRES
    95   49   50 1    
    96   49  105 1    
    97   50   51 1    
    98   50   52 1    
    99   50  106 1    
   100   51  107 1    
   101   51  108 1    
   102   51  109 1    
   103   52   53 2    
   104   52   54 am   BACKBONE|DICT|INTERRES
   105   54   55 1    
   106   54  110 1    
   107   55   56 1    
   108   55   59 1    
   109   55  111 1    
   110   56   57 am   BACKBONE|DICT|INTERRES
   111   56   58 2    
   112   57  112 1    
   113   57  113 1    
   114   59   60 1    
   115   59  114 1    
   116   59  115 1    
   117   60   61 1    
   118   61  116 1    
   119   61  117 1    
@<TRIPOS>SUBSTRUCTURE
     1 UNK         1 GROUP             0       ****    0 ROOT    
