@<TRIPOS>MOLECULE
3R8
117   119    1
SMALL
USER_CHARGES


@<TRIPOS>ATOM
      1 CA         15.7719  -22.4593  -45.9725 C.3       0 UNK        -0.2013 
      2 C          15.8426  -23.9751  -46.0796 C.2       0 UNK         0.4866 
      3 O          16.0698  -24.5032  -47.1685 O.2       0 UNK        -0.5176 
      4 N          15.6518  -24.6793  -44.9601 N.am      1 UNK        -0.4884 
      5 CA         15.7324  -26.1338  -44.8504 C.3       1 UNK         0.0853 
      6 C6         14.4397  -26.8219  -45.3685 C.3       10 UNK        -0.0849 
      7 S7         14.4722  -28.6478  -45.4676 S.3       10 UNK        -0.2776 
      8 C8         15.7179  -28.9863  -46.7584 C.3       10 UNK         0.0316 
      9 C9         17.1145  -29.1356  -46.1670 C.ar      10 UNK        -0.0863 
     10 C10        17.3942  -30.1884  -45.2904 C.ar      10 UNK        -0.1009 
     11 C11        18.6593  -30.3148  -44.7097 C.ar      10 UNK        -0.0712 
     12 C12        19.6569  -29.3863  -45.0221 C.ar      10 UNK        -0.0894 
     13 C13        19.3917  -28.3330  -45.9036 C.ar      10 UNK        -0.0745 
     14 C14        18.1256  -28.2245  -46.4859 C.ar      10 UNK        -0.0972 
     15 C15        20.4640  -27.3057  -46.2348 C.3       10 UNK         0.0209 
     16 S16        20.4257  -25.8946  -45.0804 S.3       10 UNK        -0.2568 
     17 C17        21.4040  -26.5355  -43.6784 C.3       10 UNK        -0.0983 
     18 CA         20.6234  -26.5944  -42.3398 C.3       3 UNK         0.0876 
     19 N          19.3599  -27.3234  -42.4693 N.am      3 UNK        -0.4424 
     20 C          18.4295  -27.4615  -41.5154 C.2       2 UNK         0.4918 
     21 O          18.5219  -26.9828  -40.3836 O.2       2 UNK        -0.4875 
     22 CA         17.1664  -28.2365  -41.9354 C.3       2 UNK         0.0481 
     23 CB         16.0995  -28.3224  -40.8238 C.3       2 UNK        -0.1831 
     24 N          16.6015  -27.7055  -43.1822 N.am      2 UNK        -0.4498 
     25 C          16.1052  -26.4774  -43.3956 C.2       1 UNK         0.5027 
     26 O          15.9620  -25.6231  -42.5153 O.2       1 UNK        -0.4969 
     27 C          21.5278  -27.2108  -41.2533 C.2       3 UNK         0.5005 
     28 O          21.6605  -28.4350  -41.2014 O.2       3 UNK        -0.5279 
     29 N          22.1670  -26.3539  -40.4460 N.am      4 UNK        -0.4463 
     30 CA         23.1826  -26.7495  -39.4635 C.3       4 UNK         0.0283 
     31 CB         23.1281  -25.7843  -38.2679 C.3       4 UNK        -0.1875 
     32 C          24.6022  -26.7791  -40.0604 C.2       4 UNK         0.4949 
     33 O          25.4999  -27.3548  -39.4436 O.2       4 UNK        -0.5039 
     34 N          24.7938  -26.1481  -41.2293 N.am      5 UNK        -0.4663 
     35 CA         26.0593  -26.0845  -41.9631 C.3       5 UNK         0.0242 
     36 CB         25.8979  -25.1488  -43.1733 C.3       5 UNK        -0.1982 
     37 C          26.5172  -27.4847  -42.4032 C.2       5 UNK         0.5017 
     38 O          25.7993  -28.1405  -43.1596 O.2       5 UNK        -0.5012 
     39 N          27.6841  -27.9092  -41.8959 N.am      6 UNK        -0.4439 
     40 CA         28.2719  -29.2504  -42.0289 C.3       6 UNK         0.0297 
     41 CB         28.6278  -29.5646  -43.4987 C.3       6 UNK        -0.2006 
     42 C          27.4272  -30.3589  -41.3602 C.2       6 UNK         0.4892 
     43 O          27.4817  -31.5086  -41.8011 O.2       6 UNK        -0.5089 
     44 N          26.6974  -29.9866  -40.2952 N.am      7 UNK        -0.4243 
     45 CA         25.7513  -30.7774  -39.4977 C.3       7 UNK         0.0196 
     46 CB         26.3961  -32.0687  -38.9494 C.3       7 UNK        -0.2007 
     47 C          24.4286  -31.0622  -40.2332 C.2       7 UNK         0.5020 
     48 O          24.3370  -30.9339  -41.4554 O.2       7 UNK        -0.5147 
     49 N          23.4084  -31.4343  -39.4505 N.am      8 UNK        -0.4734 
     50 CA         22.0666  -31.7644  -39.9362 C.3       8 UNK         0.0238 
     51 CB         21.0996  -31.8037  -38.7407 C.3       8 UNK        -0.1912 
     52 C          22.0277  -33.0938  -40.7105 C.2       8 UNK         0.5038 
     53 O          22.8860  -33.9567  -40.5055 O.2       8 UNK        -0.5046 
     54 N          21.0071  -33.2312  -41.5646 N.am      9 UNK        -0.4200 
     55 CA         20.7131  -34.4235  -42.3725 C.3       9 UNK         0.0839 
     56 C          20.4542  -35.6886  -41.5080 C.2       9 UNK         0.5513 
     57 N          20.9201  -36.8485  -41.9500 N.am      9 UNK        -0.7519 
     58 O          19.7945  -35.6321  -40.4720 O.2       9 UNK        -0.4960 
     59 C59        19.5115  -34.1739  -43.3208 C.3       10 UNK        -0.0876 
     60 S60        19.7959  -32.8272  -44.5218 S.3       10 UNK        -0.2414 
     61 C61        18.9330  -31.4389  -43.7237 C.3       10 UNK         0.0169 
     62 H62        15.5579  -22.1320  -44.9551 H         1 UNK         0.0903 
     63 H63        16.7195  -22.0171  -46.2789 H         1 UNK         0.0903 
     64 H64        14.9887  -22.0733  -46.6244 H         1 UNK         0.0903 
     65 H65        15.5215  -24.2161  -44.0675 H         1 UNK         0.3096 
     66 H66        16.5730  -26.4395  -45.4670 H         1 UNK         0.1121 
     67 H67        13.5932  -26.5360  -44.7415 H         1 UNK         0.0849 
     68 H68        14.1995  -26.4514  -46.3663 H         1 UNK         0.0849 
     69 H69        15.4526  -29.9145  -47.2667 H         1 UNK         0.0865 
     70 H70        15.6875  -28.2038  -47.5186 H         1 UNK         0.0865 
     71 H71        16.6173  -30.9014  -45.0475 H         1 UNK         0.1346 
     72 H72        20.6367  -29.4861  -44.5749 H         1 UNK         0.1412 
     73 H73        17.9229  -27.4124  -47.1721 H         1 UNK         0.1426 
     74 H74        20.3093  -26.9278  -47.2466 H         1 UNK         0.0716 
     75 H75        21.4528  -27.7671  -46.2385 H         1 UNK         0.0716 
     76 H76        22.2762  -25.8874  -43.5738 H         1 UNK         0.0695 
     77 H77        21.8014  -27.5194  -43.9334 H         1 UNK         0.0695 
     78 H78        20.3681  -25.5744  -42.0443 H         1 UNK         0.0983 
     79 H79        19.1908  -27.7392  -43.3736 H         1 UNK         0.3095 
     80 H80        17.4882  -29.2553  -42.1532 H         1 UNK         0.0454 
     81 H81        16.4985  -28.8251  -39.9421 H         1 UNK         0.0851 
     82 H82        15.7582  -27.3372  -40.5053 H         1 UNK         0.0851 
     83 H83        15.2287  -28.8886  -41.1535 H         1 UNK         0.0851 
     84 H84        16.6460  -28.3321  -43.9769 H         1 UNK         0.2976 
     85 H85        21.9837  -25.3636  -40.5326 H         1 UNK         0.3116 
     86 H86        22.9631  -27.7544  -39.0951 H         1 UNK         0.0646 
     87 H87        23.8511  -26.0706  -37.5026 H         1 UNK         0.0847 
     88 H88        22.1443  -25.7896  -37.7983 H         1 UNK         0.0847 
     89 H89        23.3557  -24.7591  -38.5623 H         1 UNK         0.0847 
     90 H90        23.9956  -25.7242  -41.6752 H         1 UNK         0.3040 
     91 H91        26.8096  -25.6527  -41.2971 H         1 UNK         0.1015 
     92 H92        25.6267  -24.1395  -42.8628 H         1 UNK         0.0786 
     93 H93        25.1314  -25.5061  -43.8625 H         1 UNK         0.0786 
     94 H94        26.8304  -25.0744  -43.7345 H         1 UNK         0.0786 
     95 H95        28.1865  -27.2818  -41.2818 H         1 UNK         0.3172 
     96 H96        29.2090  -29.2194  -41.4710 H         1 UNK         0.0595 
     97 H97        29.2235  -28.7678  -43.9436 H         1 UNK         0.0839 
     98 H98        27.7366  -29.7016  -44.1118 H         1 UNK         0.0839 
     99 H99        29.2124  -30.4826  -43.5710 H         1 UNK         0.0839 
    100 H100       26.6852  -28.9974  -40.0715 H         1 UNK         0.2998 
    101 H101       25.5048  -30.1425  -38.6448 H         1 UNK         0.0822 
    102 H102       27.3521  -31.8635  -38.4678 H         1 UNK         0.0787 
    103 H103       25.7549  -32.5413  -38.2047 H         1 UNK         0.0787 
    104 H104       26.5655  -32.8054  -39.7353 H         1 UNK         0.0787 
    105 H105       23.5711  -31.5537  -38.4613 H         1 UNK         0.3055 
    106 H106       21.7518  -30.9691  -40.6152 H         1 UNK         0.1106 
    107 H107       21.3763  -32.5774  -38.0232 H         1 UNK         0.0828 
    108 H108       21.0788  -30.8481  -38.2161 H         1 UNK         0.0828 
    109 H109       20.0793  -32.0127  -39.0652 H         1 UNK         0.0828 
    110 H110       20.3400  -32.4806  -41.6429 H         1 UNK         0.2931 
    111 H111       21.5967  -34.6104  -42.9864 H         1 UNK         0.0412 
    112 H112       20.7473  -37.6839  -41.4122 H         1 UNK         0.3472 
    113 H113       21.4525  -36.9051  -42.8047 H         1 UNK         0.3472 
    114 H114       18.6015  -33.9801  -42.7498 H         1 UNK         0.0970 
    115 H115       19.3045  -35.0741  -43.9031 H         1 UNK         0.0970 
    116 H116       17.9935  -31.7869  -43.2914 H         1 UNK         0.0612 
    117 H117       19.5350  -31.0625  -42.8957 H         1 UNK         0.0612 
@<TRIPOS>BOND
     1    1    2 1    
     2    1   62 1    
     3    1   63 1    
     4    1   64 1    
     5    2    3 2    
     6    2    4 am   BACKBONE|DICT|INTERRES
     7    4    5 1    
     8    4   65 1    
     9    5    6 1    
    10    5   25 1    
    11    5   66 1    
    12    6    7 1    
    13    6   67 1    
    14    6   68 1    
    15    7    8 1    
    16    8    9 1    
    17    8   69 1    
    18    8   70 1    
    19    9   10 ar   
    20    9   14 ar   
    21   10   11 ar   
    22   10   71 1    
    23   11   12 ar   
    24   11   61 1    
    25   12   13 ar   
    26   12   72 1    
    27   13   14 ar   
    28   13   15 1    
    29   14   73 1    
    30   15   16 1    
    31   15   74 1    
    32   15   75 1    
    33   16   17 1    
    34   17   18 1    
    35   17   76 1    
    36   17   77 1    
    37   18   19 1    
    38   18   27 1    
    39   18   78 1    
    40   19   20 am   BACKBONE|DICT|INTERRES
    41   19   79 1    
    42   20   21 2    
    43   20   22 1    
    44   22   23 1    
    45   22   24 1    
    46   22   80 1    
    47   23   81 1    
    48   23   82 1    
    49   23   83 1    
    50   24   25 am   BACKBONE|DICT|INTERRES
    51   24   84 1    
    52   25   26 2    
    53   27   28 2    
    54   27   29 am   BACKBONE|DICT|INTERRES
    55   29   30 1    
    56   29   85 1    
    57   30   31 1    
    58   30   32 1    
    59   30   86 1    
    60   31   87 1    
    61   31   88 1    
    62   31   89 1    
    63   32   33 2    
    64   32   34 am   BACKBONE|DICT|INTERRES
    65   34   35 1    
    66   34   90 1    
    67   35   36 1    
    68   35   37 1    
    69   35   91 1    
    70   36   92 1    
    71   36   93 1    
    72   36   94 1    
    73   37   38 2    
    74   37   39 am   BACKBONE|DICT|INTERRES
    75   39   40 1    
    76   39   95 1    
    77   40   41 1    
    78   40   42 1    
    79   40   96 1    
    80   41   97 1    
    81   41   98 1    
    82   41   99 1    
    83   42   43 2    
    84   42   44 am   BACKBONE|DICT|INTERRES
    85   44   45 1    
    86   44  100 1    
    87   45   46 1    
    88   45   47 1    
    89   45  101 1    
    90   46  102 1    
    91   46  103 1    
    92   46  104 1    
    93   47   48 2    
    94   47   49 am   BACKBONE|DICT|INTERRES
    95   49   50 1    
    96   49  105 1    
    97   50   51 1    
    98   50   52 1    
    99   50  106 1    
   100   51  107 1    
   101   51  108 1    
   102   51  109 1    
   103   52   53 2    
   104   52   54 am   BACKBONE|DICT|INTERRES
   105   54   55 1    
   106   54  110 1    
   107   55   56 1    
   108   55   59 1    
   109   55  111 1    
   110   56   57 am   BACKBONE|DICT|INTERRES
   111   56   58 2    
   112   57  112 1    
   113   57  113 1    
   114   59   60 1    
   115   59  114 1    
   116   59  115 1    
   117   60   61 1    
   118   61  116 1    
   119   61  117 1    
@<TRIPOS>SUBSTRUCTURE
     1 UNK         1 GROUP             0       ****    0 ROOT    
