@<TRIPOS>MOLECULE
3R8
117   119    1
SMALL
USER_CHARGES


@<TRIPOS>ATOM
      1 CA         13.8667  -26.4099  -47.8424 C.3       0 UNK        -0.2013 
      2 C          14.9353  -26.7032  -46.8006 C.2       0 UNK         0.4866 
      3 O          15.9717  -27.2811  -47.1297 O.2       0 UNK        -0.5176 
      4 N          14.7032  -26.2978  -45.5460 N.am      1 UNK        -0.4884 
      5 CA         15.5926  -26.5092  -44.3944 C.3       1 UNK         0.0853 
      6 C6         14.7962  -26.5400  -43.0641 C.3       10 UNK        -0.0849 
      7 S7         13.7727  -28.0488  -42.9653 S.3       10 UNK        -0.2776 
      8 C8         14.6477  -29.0363  -41.7029 C.3       10 UNK         0.0316 
      9 C9         16.1404  -29.1851  -41.9806 C.ar      10 UNK        -0.0863 
     10 C10        16.5930  -29.9231  -43.0792 C.ar      10 UNK        -0.1009 
     11 C11        17.9618  -30.0660  -43.3356 C.ar      10 UNK        -0.0712 
     12 C12        18.8785  -29.4719  -42.4571 C.ar      10 UNK        -0.0894 
     13 C13        18.4415  -28.7255  -41.3613 C.ar      10 UNK        -0.0745 
     14 C14        17.0718  -28.5867  -41.1272 C.ar      10 UNK        -0.0972 
     15 C15        19.4451  -28.0800  -40.4185 C.3       10 UNK         0.0209 
     16 S16        19.7494  -26.3391  -40.8587 S.3       10 UNK        -0.2568 
     17 C17        21.3486  -26.4226  -41.7369 C.3       10 UNK        -0.0983 
     18 CA         21.2142  -26.6820  -43.2585 C.3       3 UNK         0.0876 
     19 N          20.3255  -25.7191  -43.9143 N.am      3 UNK        -0.4424 
     20 C          19.8614  -25.8431  -45.1625 C.2       2 UNK         0.4918 
     21 O          20.1591  -26.7650  -45.9249 O.2       2 UNK        -0.4875 
     22 CA         18.8146  -24.8119  -45.6029 C.3       2 UNK         0.0481 
     23 CB         19.0330  -24.3536  -47.0550 C.3       2 UNK        -0.1831 
     24 N          17.5097  -25.4531  -45.4908 N.am      2 UNK        -0.4498 
     25 C          16.7688  -25.5075  -44.3780 C.2       1 UNK         0.5027 
     26 O          16.9944  -24.8206  -43.3800 O.2       1 UNK        -0.4969 
     27 C          22.6053  -26.7505  -43.9217 C.2       3 UNK         0.5005 
     28 O          23.0675  -25.7653  -44.5057 O.2       3 UNK        -0.5279 
     29 N          23.2487  -27.9174  -43.7916 N.am      4 UNK        -0.4463 
     30 CA         24.6035  -28.1943  -44.2678 C.3       4 UNK         0.0283 
     31 CB         24.6947  -29.6934  -44.6215 C.3       4 UNK        -0.1875 
     32 C          25.6528  -27.7655  -43.2212 C.2       4 UNK         0.4949 
     33 O          25.3795  -26.9119  -42.3749 O.2       4 UNK        -0.5039 
     34 N          26.8393  -28.3866  -43.2749 N.am      5 UNK        -0.4663 
     35 CA         27.9385  -28.1931  -42.3196 C.3       5 UNK         0.0242 
     36 CB         29.2046  -28.8647  -42.8773 C.3       5 UNK        -0.1982 
     37 C          27.6371  -28.7076  -40.8961 C.2       5 UNK         0.5017 
     38 O          28.3650  -28.3568  -39.9664 O.2       5 UNK        -0.5012 
     39 N          26.5828  -29.5179  -40.7496 N.am      6 UNK        -0.4439 
     40 CA         26.0415  -30.0053  -39.4886 C.3       6 UNK         0.0297 
     41 CB         26.5165  -31.4491  -39.2522 C.3       6 UNK        -0.2006 
     42 C          24.5126  -29.9423  -39.5654 C.2       6 UNK         0.4892 
     43 O          23.9456  -30.0414  -40.6592 O.2       6 UNK        -0.5089 
     44 N          23.8735  -29.8389  -38.3921 N.am      7 UNK        -0.4243 
     45 CA         22.4159  -29.7943  -38.2161 C.3       7 UNK         0.0196 
     46 CB         22.0947  -29.4775  -36.7467 C.3       7 UNK        -0.2007 
     47 C          21.6827  -31.0743  -38.6631 C.2       7 UNK         0.5020 
     48 O          20.4776  -31.0271  -38.9040 O.2       7 UNK        -0.5147 
     49 N          22.4217  -32.1845  -38.7923 N.am      8 UNK        -0.4734 
     50 CA         21.9542  -33.4587  -39.3439 C.3       8 UNK         0.0238 
     51 CB         22.9612  -34.5578  -38.9629 C.3       8 UNK        -0.1912 
     52 C          21.7283  -33.4371  -40.8702 C.2       8 UNK         0.5038 
     53 O          21.1896  -34.4110  -41.3975 O.2       8 UNK        -0.5046 
     54 N          22.1403  -32.3561  -41.5517 N.am      9 UNK        -0.4200 
     55 CA         22.0435  -32.1637  -43.0084 C.3       9 UNK         0.0839 
     56 C          23.0861  -32.9821  -43.8308 C.2       9 UNK         0.5513 
     57 N          24.1442  -33.5006  -43.2183 N.am      9 UNK        -0.7519 
     58 O          22.9569  -33.1291  -45.0428 O.2       9 UNK        -0.4960 
     59 C59        20.5841  -32.2984  -43.5434 C.3       10 UNK        -0.0876 
     60 S60        20.1856  -31.0698  -44.8331 S.3       10 UNK        -0.2414 
     61 C61        18.3869  -30.8573  -44.5767 C.3       10 UNK         0.0169 
     62 H62        13.5160  -27.3391  -48.2907 H         1 UNK         0.0903 
     63 H63        13.0074  -25.8957  -47.4122 H         1 UNK         0.0903 
     64 H64        14.2764  -25.7829  -48.6338 H         1 UNK         0.0903 
     65 H65        13.8418  -25.8118  -45.3395 H         1 UNK         0.3096 
     66 H66        16.0657  -27.4874  -44.5082 H         1 UNK         0.1121 
     67 H67        14.1520  -25.6634  -42.9781 H         1 UNK         0.0849 
     68 H68        15.4582  -26.5057  -42.1975 H         1 UNK         0.0849 
     69 H69        14.4813  -28.5796  -40.7259 H         1 UNK         0.0865 
     70 H70        14.1935  -30.0269  -41.6530 H         1 UNK         0.0865 
     71 H71        15.8722  -30.3790  -43.7447 H         1 UNK         0.1346 
     72 H72        19.9398  -29.5845  -42.6122 H         1 UNK         0.1412 
     73 H73        16.7340  -28.0100  -40.2768 H         1 UNK         0.1426 
     74 H74        20.3775  -28.6436  -40.4208 H         1 UNK         0.0716 
     75 H75        19.0687  -28.1255  -39.3954 H         1 UNK         0.0716 
     76 H76        21.9722  -27.1846  -41.2648 H         1 UNK         0.0695 
     77 H77        21.8628  -25.4749  -41.5653 H         1 UNK         0.0695 
     78 H78        20.7526  -27.6586  -43.3987 H         1 UNK         0.0983 
     79 H79        19.9992  -24.9550  -43.3408 H         1 UNK         0.3095 
     80 H80        18.8655  -23.9343  -44.9547 H         1 UNK         0.0454 
     81 H81        18.2935  -23.6088  -47.3491 H         1 UNK         0.0851 
     82 H82        18.9684  -25.1835  -47.7601 H         1 UNK         0.0851 
     83 H83        20.0173  -23.8995  -47.1746 H         1 UNK         0.0851 
     84 H84        17.2439  -26.0766  -46.2484 H         1 UNK         0.2976 
     85 H85        22.8239  -28.6436  -43.2341 H         1 UNK         0.3116 
     86 H86        24.7894  -27.6176  -45.1763 H         1 UNK         0.0646 
     87 H87        24.6747  -30.3220  -43.7302 H         1 UNK         0.0847 
     88 H88        23.8679  -30.0011  -45.2628 H         1 UNK         0.0847 
     89 H89        25.6106  -29.9225  -45.1670 H         1 UNK         0.0847 
     90 H90        26.9931  -29.0699  -44.0027 H         1 UNK         0.3040 
     91 H91        28.1265  -27.1203  -42.2360 H         1 UNK         0.1015 
     92 H92        30.0552  -28.7100  -42.2116 H         1 UNK         0.0786 
     93 H93        29.4790  -28.4524  -43.8485 H         1 UNK         0.0786 
     94 H94        29.0734  -29.9414  -42.9922 H         1 UNK         0.0786 
     95 H95        25.9941  -29.6939  -41.5527 H         1 UNK         0.3172 
     96 H96        26.3743  -29.3693  -38.6654 H         1 UNK         0.0595 
     97 H97        26.1798  -32.1204  -40.0435 H         1 UNK         0.0839 
     98 H98        26.1385  -31.8399  -38.3067 H         1 UNK         0.0839 
     99 H99        27.6046  -31.5038  -39.2105 H         1 UNK         0.0839 
    100 H100       24.4257  -29.7786  -37.5479 H         1 UNK         0.2998 
    101 H101       22.0407  -28.9742  -38.8302 H         1 UNK         0.0822 
    102 H102       21.0175  -29.4018  -36.5900 H         1 UNK         0.0787 
    103 H103       22.5308  -28.5265  -36.4401 H         1 UNK         0.0787 
    104 H104       22.4679  -30.2522  -36.0756 H         1 UNK         0.0787 
    105 H105       23.4004  -32.1270  -38.5528 H         1 UNK         0.3055 
    106 H106       20.9921  -33.6973  -38.8847 H         1 UNK         0.1106 
    107 H107       23.0743  -34.6356  -37.8814 H         1 UNK         0.0828 
    108 H108       22.6302  -35.5339  -39.3206 H         1 UNK         0.0828 
    109 H109       23.9463  -34.3714  -39.3922 H         1 UNK         0.0828 
    110 H110       22.6103  -31.6130  -41.0470 H         1 UNK         0.2931 
    111 H111       22.3475  -31.1250  -43.1403 H         1 UNK         0.0412 
    112 H112       24.2707  -33.3840  -42.2265 H         1 UNK         0.3472 
    113 H113       24.8183  -34.0217  -43.7567 H         1 UNK         0.3472 
    114 H114       19.8727  -32.1633  -42.7276 H         1 UNK         0.0970 
    115 H115       20.3911  -33.3019  -43.9274 H         1 UNK         0.0970 
    116 H116       17.9866  -30.3488  -45.4551 H         1 UNK         0.0612 
    117 H117       17.9203  -31.8433  -44.5523 H         1 UNK         0.0612 
@<TRIPOS>BOND
     1    1    2 1    
     2    1   62 1    
     3    1   63 1    
     4    1   64 1    
     5    2    3 2    
     6    2    4 am   BACKBONE|DICT|INTERRES
     7    4    5 1    
     8    4   65 1    
     9    5    6 1    
    10    5   25 1    
    11    5   66 1    
    12    6    7 1    
    13    6   67 1    
    14    6   68 1    
    15    7    8 1    
    16    8    9 1    
    17    8   69 1    
    18    8   70 1    
    19    9   10 ar   
    20    9   14 ar   
    21   10   11 ar   
    22   10   71 1    
    23   11   12 ar   
    24   11   61 1    
    25   12   13 ar   
    26   12   72 1    
    27   13   14 ar   
    28   13   15 1    
    29   14   73 1    
    30   15   16 1    
    31   15   74 1    
    32   15   75 1    
    33   16   17 1    
    34   17   18 1    
    35   17   76 1    
    36   17   77 1    
    37   18   19 1    
    38   18   27 1    
    39   18   78 1    
    40   19   20 am   BACKBONE|DICT|INTERRES
    41   19   79 1    
    42   20   21 2    
    43   20   22 1    
    44   22   23 1    
    45   22   24 1    
    46   22   80 1    
    47   23   81 1    
    48   23   82 1    
    49   23   83 1    
    50   24   25 am   BACKBONE|DICT|INTERRES
    51   24   84 1    
    52   25   26 2    
    53   27   28 2    
    54   27   29 am   BACKBONE|DICT|INTERRES
    55   29   30 1    
    56   29   85 1    
    57   30   31 1    
    58   30   32 1    
    59   30   86 1    
    60   31   87 1    
    61   31   88 1    
    62   31   89 1    
    63   32   33 2    
    64   32   34 am   BACKBONE|DICT|INTERRES
    65   34   35 1    
    66   34   90 1    
    67   35   36 1    
    68   35   37 1    
    69   35   91 1    
    70   36   92 1    
    71   36   93 1    
    72   36   94 1    
    73   37   38 2    
    74   37   39 am   BACKBONE|DICT|INTERRES
    75   39   40 1    
    76   39   95 1    
    77   40   41 1    
    78   40   42 1    
    79   40   96 1    
    80   41   97 1    
    81   41   98 1    
    82   41   99 1    
    83   42   43 2    
    84   42   44 am   BACKBONE|DICT|INTERRES
    85   44   45 1    
    86   44  100 1    
    87   45   46 1    
    88   45   47 1    
    89   45  101 1    
    90   46  102 1    
    91   46  103 1    
    92   46  104 1    
    93   47   48 2    
    94   47   49 am   BACKBONE|DICT|INTERRES
    95   49   50 1    
    96   49  105 1    
    97   50   51 1    
    98   50   52 1    
    99   50  106 1    
   100   51  107 1    
   101   51  108 1    
   102   51  109 1    
   103   52   53 2    
   104   52   54 am   BACKBONE|DICT|INTERRES
   105   54   55 1    
   106   54  110 1    
   107   55   56 1    
   108   55   59 1    
   109   55  111 1    
   110   56   57 am   BACKBONE|DICT|INTERRES
   111   56   58 2    
   112   57  112 1    
   113   57  113 1    
   114   59   60 1    
   115   59  114 1    
   116   59  115 1    
   117   60   61 1    
   118   61  116 1    
   119   61  117 1    
@<TRIPOS>SUBSTRUCTURE
     1 UNK         1 GROUP             0       ****    0 ROOT    
