@<TRIPOS>MOLECULE
3R8
117   119    1
SMALL
USER_CHARGES


@<TRIPOS>ATOM
      1 CA         13.7972  -27.5567  -48.7938 C.3       0 UNK        -0.2013 
      2 C          14.5038  -26.9017  -47.6164 C.2       0 UNK         0.4866 
      3 O          14.6814  -25.6835  -47.6161 O.2       0 UNK        -0.5176 
      4 N          14.9046  -27.7057  -46.6210 N.am      1 UNK        -0.4884 
      5 CA         15.6000  -27.2989  -45.3895 C.3       1 UNK         0.0853 
      6 C6         14.7093  -26.4752  -44.4163 C.3       10 UNK        -0.0849 
      7 S7         13.3743  -27.5133  -43.7200 S.3       10 UNK        -0.2776 
      8 C8         13.9662  -27.8570  -42.0230 C.3       10 UNK         0.0316 
      9 C9         15.4171  -28.3238  -41.9868 C.ar      10 UNK        -0.0863 
     10 C10        15.7873  -29.5394  -42.5707 C.ar      10 UNK        -0.1009 
     11 C11        17.1326  -29.9169  -42.6307 C.ar      10 UNK        -0.0712 
     12 C12        18.1041  -29.0902  -42.0562 C.ar      10 UNK        -0.0894 
     13 C13        17.7426  -27.8928  -41.4355 C.ar      10 UNK        -0.0745 
     14 C14        16.3978  -27.5146  -41.4047 C.ar      10 UNK        -0.0972 
     15 C15        18.8000  -26.9935  -40.8143 C.3       10 UNK         0.0209 
     16 S16        19.1799  -25.5932  -41.9129 S.3       10 UNK        -0.2568 
     17 C17        20.9212  -25.9039  -42.3538 C.3       10 UNK        -0.0983 
     18 CA         21.1105  -26.9547  -43.4769 C.3       3 UNK         0.0876 
     19 N          20.3269  -26.6521  -44.6734 N.am      3 UNK        -0.4424 
     20 C          20.0304  -27.5471  -45.6199 C.2       2 UNK         0.4918 
     21 O          20.3609  -28.7347  -45.5712 O.2       2 UNK        -0.4875 
     22 CA         19.1679  -27.0424  -46.7875 C.3       2 UNK         0.0481 
     23 CB         19.5798  -27.6888  -48.1215 C.3       2 UNK        -0.1831 
     24 N          17.7650  -27.3479  -46.5179 N.am      2 UNK        -0.4498 
     25 C          16.9769  -26.6625  -45.6769 C.2       1 UNK         0.5027 
     26 O          17.3038  -25.5970  -45.1507 O.2       1 UNK        -0.4969 
     27 C          22.6069  -27.0820  -43.8222 C.2       3 UNK         0.5005 
     28 O          23.1358  -26.2520  -44.5664 O.2       3 UNK        -0.5279 
     29 N          23.2649  -28.0764  -43.2188 N.am      4 UNK        -0.4463 
     30 CA         24.7224  -28.2204  -43.1702 C.3       4 UNK         0.0283 
     31 CB         25.1015  -29.6822  -43.4528 C.3       4 UNK        -0.1875 
     32 C          25.2815  -27.7951  -41.8021 C.2       4 UNK         0.4949 
     33 O          26.4908  -27.5934  -41.6901 O.2       4 UNK        -0.5039 
     34 N          24.4084  -27.6911  -40.7863 N.am      5 UNK        -0.4663 
     35 CA         24.6663  -27.3452  -39.3827 C.3       5 UNK         0.0242 
     36 CB         25.2811  -25.9383  -39.2368 C.3       5 UNK        -0.1982 
     37 C          25.4821  -28.4148  -38.6399 C.2       5 UNK         0.5017 
     38 O          24.9477  -29.0527  -37.7337 O.2       5 UNK        -0.5012 
     39 N          26.7346  -28.6294  -39.0628 N.am      6 UNK        -0.4439 
     40 CA         27.6627  -29.6196  -38.5045 C.3       6 UNK         0.0297 
     41 CB         29.0591  -29.4089  -39.1108 C.3       6 UNK        -0.2006 
     42 C          27.1984  -31.0729  -38.7088 C.2       6 UNK         0.4892 
     43 O          27.4151  -31.9067  -37.8294 O.2       6 UNK        -0.5089 
     44 N          26.5467  -31.3324  -39.8495 N.am      7 UNK        -0.4243 
     45 CA         25.9094  -32.6071  -40.1943 C.3       7 UNK         0.0196 
     46 CB         26.4091  -33.0489  -41.5823 C.3       7 UNK        -0.2007 
     47 C          24.3719  -32.5021  -40.1600 C.2       7 UNK         0.5020 
     48 O          23.6976  -33.3933  -40.6765 O.2       7 UNK        -0.5147 
     49 N          23.8428  -31.4155  -39.5745 N.am      8 UNK        -0.4734 
     50 CA         22.4392  -30.9886  -39.5494 C.3       8 UNK         0.0238 
     51 CB         21.5350  -31.9948  -38.8055 C.3       8 UNK        -0.1912 
     52 C          21.9188  -30.6401  -40.9527 C.2       8 UNK         0.5038 
     53 O          21.8668  -29.4568  -41.2913 O.2       8 UNK        -0.5046 
     54 N          21.5735  -31.6613  -41.7401 N.am      9 UNK        -0.4200 
     55 CA         21.0673  -31.5554  -43.1135 C.3       9 UNK         0.0839 
     56 C          22.2126  -31.7072  -44.1430 C.2       9 UNK         0.5513 
     57 N          22.1979  -30.9175  -45.2072 N.am      9 UNK        -0.7519 
     58 O          23.0870  -32.5592  -44.0080 O.2       9 UNK        -0.4960 
     59 C59        19.9578  -32.6039  -43.3794 C.3       10 UNK        -0.0876 
     60 S60        18.4867  -32.3320  -42.3338 S.3       10 UNK        -0.2414 
     61 C61        17.5387  -31.1791  -43.3779 C.3       10 UNK         0.0169 
     62 H62        13.7033  -28.6351  -48.6670 H         1 UNK         0.0903 
     63 H63        12.7963  -27.1413  -48.9082 H         1 UNK         0.0903 
     64 H64        14.3504  -27.3706  -49.7140 H         1 UNK         0.0903 
     65 H65        14.7093  -28.6951  -46.6914 H         1 UNK         0.3096 
     66 H66        15.8532  -28.2290  -44.8834 H         1 UNK         0.1121 
     67 H67        14.2666  -25.6184  -44.9260 H         1 UNK         0.0849 
     68 H68        15.2938  -26.0578  -43.5950 H         1 UNK         0.0849 
     69 H69        13.8348  -26.9582  -41.4183 H         1 UNK         0.0865 
     70 H70        13.3310  -28.6211  -41.5727 H         1 UNK         0.0865 
     71 H71        15.0298  -30.1617  -43.0281 H         1 UNK         0.1346 
     72 H72        19.1439  -29.3769  -42.0943 H         1 UNK         0.1412 
     73 H73        16.1221  -26.5728  -40.9496 H         1 UNK         0.1426 
     74 H74        18.4369  -26.6067  -39.8611 H         1 UNK         0.0716 
     75 H75        19.7026  -27.5631  -40.5870 H         1 UNK         0.0716 
     76 H76        21.4618  -26.2006  -41.4527 H         1 UNK         0.0695 
     77 H77        21.3494  -24.9459  -42.6562 H         1 UNK         0.0695 
     78 H78        20.7595  -27.9152  -43.0968 H         1 UNK         0.0983 
     79 H79        19.9787  -25.7079  -44.7568 H         1 UNK         0.3095 
     80 H80        19.2931  -25.9617  -46.8840 H         1 UNK         0.0454 
     81 H81        20.6295  -27.4898  -48.3409 H         1 UNK         0.0851 
     82 H82        18.9948  -27.2917  -48.9511 H         1 UNK         0.0851 
     83 H83        19.4505  -28.7718  -48.1089 H         1 UNK         0.0851 
     84 H84        17.4127  -28.2110  -46.9059 H         1 UNK         0.2976 
     85 H85        22.7311  -28.6986  -42.6125 H         1 UNK         0.3116 
     86 H86        25.1945  -27.5911  -43.9274 H         1 UNK         0.0646 
     87 H87        24.7970  -29.9797  -44.4556 H         1 UNK         0.0847 
     88 H88        26.1809  -29.8284  -43.3920 H         1 UNK         0.0847 
     89 H89        24.6366  -30.3667  -42.7428 H         1 UNK         0.0847 
     90 H90        23.4463  -27.9329  -40.9855 H         1 UNK         0.3040 
     91 H91        23.6870  -27.3156  -38.9010 H         1 UNK         0.1015 
     92 H92        26.2673  -25.8627  -39.6950 H         1 UNK         0.0786 
     93 H93        25.3936  -25.6721  -38.1850 H         1 UNK         0.0786 
     94 H94        24.6437  -25.1818  -39.6946 H         1 UNK         0.0786 
     95 H95        27.0397  -28.1057  -39.8791 H         1 UNK         0.3172 
     96 H96        27.7277  -29.4429  -37.4288 H         1 UNK         0.0595 
     97 H97        29.0546  -29.5380  -40.1940 H         1 UNK         0.0839 
     98 H98        29.7748  -30.1226  -38.7002 H         1 UNK         0.0839 
     99 H99        29.4394  -28.4106  -38.8937 H         1 UNK         0.0839 
    100 H100       26.4336  -30.5779  -40.5110 H         1 UNK         0.2998 
    101 H101       26.1873  -33.3787  -39.4734 H         1 UNK         0.0822 
    102 H102       26.0165  -34.0318  -41.8465 H         1 UNK         0.0787 
    103 H103       26.0996  -32.3561  -42.3651 H         1 UNK         0.0787 
    104 H104       27.4966  -33.1207  -41.6076 H         1 UNK         0.0787 
    105 H105       24.4854  -30.7757  -39.1244 H         1 UNK         0.3055 
    106 H106       22.4171  -30.0595  -38.9768 H         1 UNK         0.1106 
    107 H107       21.8617  -32.1250  -37.7739 H         1 UNK         0.0828 
    108 H108       20.5042  -31.6391  -38.7745 H         1 UNK         0.0828 
    109 H109       21.5213  -32.9791  -39.2732 H         1 UNK         0.0828 
    110 H110       21.8030  -32.5945  -41.4216 H         1 UNK         0.2931 
    111 H111       20.6315  -30.5658  -43.2571 H         1 UNK         0.0412 
    112 H112       22.9203  -31.0204  -45.9012 H         1 UNK         0.3472 
    113 H113       21.4815  -30.2060  -45.3322 H         1 UNK         0.3472 
    114 H114       19.6557  -32.5987  -44.4287 H         1 UNK         0.0970 
    115 H115       20.3323  -33.6110  -43.1861 H         1 UNK         0.0970 
    116 H116       18.1227  -30.8787  -44.2489 H         1 UNK         0.0612 
    117 H117       16.6635  -31.7044  -43.7630 H         1 UNK         0.0612 
@<TRIPOS>BOND
     1    1    2 1    
     2    1   62 1    
     3    1   63 1    
     4    1   64 1    
     5    2    3 2    
     6    2    4 am   BACKBONE|DICT|INTERRES
     7    4    5 1    
     8    4   65 1    
     9    5    6 1    
    10    5   25 1    
    11    5   66 1    
    12    6    7 1    
    13    6   67 1    
    14    6   68 1    
    15    7    8 1    
    16    8    9 1    
    17    8   69 1    
    18    8   70 1    
    19    9   10 ar   
    20    9   14 ar   
    21   10   11 ar   
    22   10   71 1    
    23   11   12 ar   
    24   11   61 1    
    25   12   13 ar   
    26   12   72 1    
    27   13   14 ar   
    28   13   15 1    
    29   14   73 1    
    30   15   16 1    
    31   15   74 1    
    32   15   75 1    
    33   16   17 1    
    34   17   18 1    
    35   17   76 1    
    36   17   77 1    
    37   18   19 1    
    38   18   27 1    
    39   18   78 1    
    40   19   20 am   BACKBONE|DICT|INTERRES
    41   19   79 1    
    42   20   21 2    
    43   20   22 1    
    44   22   23 1    
    45   22   24 1    
    46   22   80 1    
    47   23   81 1    
    48   23   82 1    
    49   23   83 1    
    50   24   25 am   BACKBONE|DICT|INTERRES
    51   24   84 1    
    52   25   26 2    
    53   27   28 2    
    54   27   29 am   BACKBONE|DICT|INTERRES
    55   29   30 1    
    56   29   85 1    
    57   30   31 1    
    58   30   32 1    
    59   30   86 1    
    60   31   87 1    
    61   31   88 1    
    62   31   89 1    
    63   32   33 2    
    64   32   34 am   BACKBONE|DICT|INTERRES
    65   34   35 1    
    66   34   90 1    
    67   35   36 1    
    68   35   37 1    
    69   35   91 1    
    70   36   92 1    
    71   36   93 1    
    72   36   94 1    
    73   37   38 2    
    74   37   39 am   BACKBONE|DICT|INTERRES
    75   39   40 1    
    76   39   95 1    
    77   40   41 1    
    78   40   42 1    
    79   40   96 1    
    80   41   97 1    
    81   41   98 1    
    82   41   99 1    
    83   42   43 2    
    84   42   44 am   BACKBONE|DICT|INTERRES
    85   44   45 1    
    86   44  100 1    
    87   45   46 1    
    88   45   47 1    
    89   45  101 1    
    90   46  102 1    
    91   46  103 1    
    92   46  104 1    
    93   47   48 2    
    94   47   49 am   BACKBONE|DICT|INTERRES
    95   49   50 1    
    96   49  105 1    
    97   50   51 1    
    98   50   52 1    
    99   50  106 1    
   100   51  107 1    
   101   51  108 1    
   102   51  109 1    
   103   52   53 2    
   104   52   54 am   BACKBONE|DICT|INTERRES
   105   54   55 1    
   106   54  110 1    
   107   55   56 1    
   108   55   59 1    
   109   55  111 1    
   110   56   57 am   BACKBONE|DICT|INTERRES
   111   56   58 2    
   112   57  112 1    
   113   57  113 1    
   114   59   60 1    
   115   59  114 1    
   116   59  115 1    
   117   60   61 1    
   118   61  116 1    
   119   61  117 1    
@<TRIPOS>SUBSTRUCTURE
     1 UNK         1 GROUP             0       ****    0 ROOT    
