@<TRIPOS>MOLECULE
3R8
117   119    1
SMALL
USER_CHARGES


@<TRIPOS>ATOM
      1 CA         16.5570  -24.3748  -42.2766 C.3       0 UNK        -0.2013 
      2 C          16.1780  -25.4381  -41.2485 C.2       0 UNK         0.4866 
      3 O          16.0176  -25.1099  -40.0751 O.2       0 UNK        -0.5176 
      4 N          16.0197  -26.7168  -41.6236 N.am      1 UNK        -0.4884 
      5 CA         16.2073  -27.2832  -42.9688 C.3       1 UNK         0.0853 
      6 C6         15.5643  -28.6926  -43.0696 C.3       10 UNK        -0.0849 
      7 S7         15.0032  -29.0847  -44.7613 S.3       10 UNK        -0.2776 
      8 C8         15.7301  -30.7331  -45.0448 C.3       10 UNK         0.0316 
      9 C9         17.2287  -30.6955  -45.3257 C.ar      10 UNK        -0.0863 
     10 C10        18.1181  -31.3955  -44.5048 C.ar      10 UNK        -0.1009 
     11 C11        19.4858  -31.4256  -44.7982 C.ar      10 UNK        -0.0712 
     12 C12        19.9659  -30.7392  -45.9184 C.ar      10 UNK        -0.0894 
     13 C13        19.0855  -30.0471  -46.7558 C.ar      10 UNK        -0.0745 
     14 C14        17.7204  -30.0269  -46.4515 C.ar      10 UNK        -0.0972 
     15 C15        19.5874  -29.3838  -48.0313 C.3       10 UNK         0.0209 
     16 S16        19.8644  -27.5969  -47.8299 S.3       10 UNK        -0.2568 
     17 C17        21.5642  -27.5380  -47.1720 C.3       10 UNK        -0.0983 
     18 CA         21.6598  -26.6686  -45.8975 C.3       3 UNK         0.0876 
     19 N          20.9242  -27.2530  -44.7759 N.am      3 UNK        -0.4424 
     20 C          20.7401  -26.6697  -43.5853 C.2       2 UNK         0.4918 
     21 O          21.1096  -25.5244  -43.3135 O.2       2 UNK        -0.4875 
     22 CA         20.0500  -27.5298  -42.5124 C.3       2 UNK         0.0481 
     23 CB         20.6612  -27.2646  -41.1247 C.3       2 UNK        -0.1831 
     24 N          18.5965  -27.3686  -42.4157 N.am      2 UNK        -0.4498 
     25 C          17.6884  -27.3192  -43.4037 C.2       1 UNK         0.5027 
     26 O          17.9563  -27.2915  -44.6018 O.2       1 UNK        -0.4969 
     27 C          23.1290  -26.4462  -45.4952 C.2       3 UNK         0.5005 
     28 O          23.7694  -27.3819  -45.0110 O.2       3 UNK        -0.5279 
     29 N          23.6114  -25.2029  -45.6444 N.am      4 UNK        -0.4463 
     30 CA         24.9404  -24.7210  -45.2356 C.3       4 UNK         0.0283 
     31 CB         26.0372  -25.3453  -46.1248 C.3       4 UNK        -0.1875 
     32 C          25.2376  -24.8980  -43.7285 C.2       4 UNK         0.4949 
     33 O          26.4065  -24.9667  -43.3467 O.2       4 UNK        -0.5039 
     34 N          24.1779  -24.9789  -42.9060 N.am      5 UNK        -0.4663 
     35 CA         24.1887  -25.2608  -41.4653 C.3       5 UNK         0.0242 
     36 CB         24.8342  -24.0974  -40.6816 C.3       5 UNK        -0.1982 
     37 C          24.7937  -26.6377  -41.1125 C.2       5 UNK         0.5017 
     38 O          25.4189  -26.7741  -40.0587 O.2       5 UNK        -0.5012 
     39 N          24.6041  -27.6313  -41.9958 N.am      6 UNK        -0.4439 
     40 CA         25.0536  -29.0155  -41.8179 C.3       6 UNK         0.0297 
     41 CB         24.7576  -29.8103  -43.0993 C.3       6 UNK        -0.2006 
     42 C          24.4230  -29.7113  -40.5963 C.2       6 UNK         0.4892 
     43 O          23.2720  -29.4377  -40.2475 O.2       6 UNK        -0.5089 
     44 N          25.1982  -30.6100  -39.9781 N.am      7 UNK        -0.4243 
     45 CA         24.7878  -31.4083  -38.8232 C.3       7 UNK         0.0196 
     46 CB         26.0439  -31.9689  -38.1353 C.3       7 UNK        -0.2007 
     47 C          23.8401  -32.5524  -39.2196 C.2       7 UNK         0.5020 
     48 O          23.9038  -33.0440  -40.3478 O.2       7 UNK        -0.5147 
     49 N          23.0115  -32.9755  -38.2539 N.am      8 UNK        -0.4734 
     50 CA         22.0533  -34.0927  -38.3116 C.3       8 UNK         0.0238 
     51 CB         22.7742  -35.4323  -38.5782 C.3       8 UNK        -0.1912 
     52 C          20.8521  -33.8801  -39.2573 C.2       8 UNK         0.5038 
     53 O          20.1022  -34.8290  -39.4935 O.2       8 UNK        -0.5046 
     54 N          20.6608  -32.6505  -39.7510 N.am      9 UNK        -0.4200 
     55 CA         19.5234  -32.2502  -40.5954 C.3       9 UNK         0.0839 
     56 C          18.1925  -32.0184  -39.8227 C.2       9 UNK         0.5513 
     57 N          18.1797  -32.0145  -38.4951 N.am      9 UNK        -0.7519 
     58 O          17.1485  -31.8422  -40.4450 O.2       9 UNK        -0.4960 
     59 C59        19.8703  -31.0195  -41.4699 C.3       10 UNK        -0.0876 
     60 S60        21.2450  -31.3193  -42.6304 S.3       10 UNK        -0.2414 
     61 C61        20.4333  -32.2672  -43.9539 C.3       10 UNK         0.0169 
     62 H62        16.4608  -23.3794  -41.8432 H         1 UNK         0.0903 
     63 H63        17.5915  -24.4951  -42.5972 H         1 UNK         0.0903 
     64 H64        15.9077  -24.4110  -43.1503 H         1 UNK         0.0903 
     65 H65        15.7503  -27.3831  -40.9130 H         1 UNK         0.3096 
     66 H66        15.6854  -26.6290  -43.6698 H         1 UNK         0.1121 
     67 H67        14.6755  -28.7461  -42.4386 H         1 UNK         0.0849 
     68 H68        16.2351  -29.4691  -42.6944 H         1 UNK         0.0849 
     69 H69        15.5050  -31.3756  -44.1920 H         1 UNK         0.0865 
     70 H70        15.2311  -31.1873  -45.9019 H         1 UNK         0.0865 
     71 H71        17.7426  -31.9442  -43.6516 H         1 UNK         0.1346 
     72 H72        21.0196  -30.7786  -46.1586 H         1 UNK         0.1412 
     73 H73        17.0346  -29.5001  -47.1011 H         1 UNK         0.1426 
     74 H74        18.8499  -29.5284  -48.8222 H         1 UNK         0.0716 
     75 H75        20.4997  -29.8653  -48.3870 H         1 UNK         0.0716 
     76 H76        22.2008  -27.1333  -47.9613 H         1 UNK         0.0695 
     77 H77        21.9294  -28.5475  -46.9748 H         1 UNK         0.0695 
     78 H78        21.2070  -25.6974  -46.1095 H         1 UNK         0.0983 
     79 H79        20.5302  -28.1692  -44.9352 H         1 UNK         0.3095 
     80 H80        20.2347  -28.5721  -42.7679 H         1 UNK         0.0454 
     81 H81        20.4973  -26.2363  -40.7999 H         1 UNK         0.0851 
     82 H82        21.7373  -27.4353  -41.1383 H         1 UNK         0.0851 
     83 H83        20.2443  -27.9210  -40.3622 H         1 UNK         0.0851 
     84 H84        18.2282  -27.3397  -41.4761 H         1 UNK         0.2976 
     85 H85        22.9976  -24.4960  -46.0274 H         1 UNK         0.3116 
     86 H86        24.9427  -23.6450  -45.4160 H         1 UNK         0.0646 
     87 H87        25.8203  -25.2031  -47.1833 H         1 UNK         0.0847 
     88 H88        26.1427  -26.4157  -45.9444 H         1 UNK         0.0847 
     89 H89        27.0080  -24.8872  -45.9318 H         1 UNK         0.0847 
     90 H90        23.2546  -24.9228  -43.3215 H         1 UNK         0.3040 
     91 H91        23.1419  -25.3125  -41.1621 H         1 UNK         0.1015 
     92 H92        25.9045  -24.0214  -40.8757 H         1 UNK         0.0786 
     93 H93        24.7090  -24.2328  -39.6066 H         1 UNK         0.0786 
     94 H94        24.3771  -23.1425  -40.9406 H         1 UNK         0.0786 
     95 H95        24.1285  -27.4250  -42.8670 H         1 UNK         0.3172 
     96 H96        26.1357  -28.9879  -41.6742 H         1 UNK         0.0595 
     97 H97        25.0278  -30.8613  -42.9872 H         1 UNK         0.0839 
     98 H98        25.3211  -29.4194  -43.9468 H         1 UNK         0.0839 
     99 H99        23.6992  -29.7719  -43.3584 H         1 UNK         0.0839 
    100 H100       26.1114  -30.8088  -40.3598 H         1 UNK         0.2998 
    101 H101       24.2693  -30.7513  -38.1209 H         1 UNK         0.0822 
    102 H102       26.7129  -31.1692  -37.8165 H         1 UNK         0.0787 
    103 H103       25.7818  -32.5428  -37.2453 H         1 UNK         0.0787 
    104 H104       26.6036  -32.6325  -38.7961 H         1 UNK         0.0787 
    105 H105       23.0475  -32.4946  -37.3645 H         1 UNK         0.3055 
    106 H106       21.6186  -34.1584  -37.3127 H         1 UNK         0.1106 
    107 H107       23.1671  -35.4879  -39.5937 H         1 UNK         0.0828 
    108 H108       22.0948  -36.2760  -38.4502 H         1 UNK         0.0828 
    109 H109       23.6042  -35.5818  -37.8878 H         1 UNK         0.0828 
    110 H110       21.3339  -31.9314  -39.5320 H         1 UNK         0.2931 
    111 H111       19.3139  -33.0800  -41.2720 H         1 UNK         0.0412 
    112 H112       17.3077  -31.8667  -38.0113 H         1 UNK         0.3472 
    113 H113       19.0286  -32.1563  -37.9723 H         1 UNK         0.3472 
    114 H114       20.1591  -30.1893  -40.8258 H         1 UNK         0.0970 
    115 H115       19.0048  -30.6679  -42.0317 H         1 UNK         0.0970 
    116 H116       21.2089  -32.6907  -44.5937 H         1 UNK         0.0612 
    117 H117       19.9058  -33.1203  -43.5263 H         1 UNK         0.0612 
@<TRIPOS>BOND
     1    1    2 1    
     2    1   62 1    
     3    1   63 1    
     4    1   64 1    
     5    2    3 2    
     6    2    4 am   BACKBONE|DICT|INTERRES
     7    4    5 1    
     8    4   65 1    
     9    5    6 1    
    10    5   25 1    
    11    5   66 1    
    12    6    7 1    
    13    6   67 1    
    14    6   68 1    
    15    7    8 1    
    16    8    9 1    
    17    8   69 1    
    18    8   70 1    
    19    9   10 ar   
    20    9   14 ar   
    21   10   11 ar   
    22   10   71 1    
    23   11   12 ar   
    24   11   61 1    
    25   12   13 ar   
    26   12   72 1    
    27   13   14 ar   
    28   13   15 1    
    29   14   73 1    
    30   15   16 1    
    31   15   74 1    
    32   15   75 1    
    33   16   17 1    
    34   17   18 1    
    35   17   76 1    
    36   17   77 1    
    37   18   19 1    
    38   18   27 1    
    39   18   78 1    
    40   19   20 am   BACKBONE|DICT|INTERRES
    41   19   79 1    
    42   20   21 2    
    43   20   22 1    
    44   22   23 1    
    45   22   24 1    
    46   22   80 1    
    47   23   81 1    
    48   23   82 1    
    49   23   83 1    
    50   24   25 am   BACKBONE|DICT|INTERRES
    51   24   84 1    
    52   25   26 2    
    53   27   28 2    
    54   27   29 am   BACKBONE|DICT|INTERRES
    55   29   30 1    
    56   29   85 1    
    57   30   31 1    
    58   30   32 1    
    59   30   86 1    
    60   31   87 1    
    61   31   88 1    
    62   31   89 1    
    63   32   33 2    
    64   32   34 am   BACKBONE|DICT|INTERRES
    65   34   35 1    
    66   34   90 1    
    67   35   36 1    
    68   35   37 1    
    69   35   91 1    
    70   36   92 1    
    71   36   93 1    
    72   36   94 1    
    73   37   38 2    
    74   37   39 am   BACKBONE|DICT|INTERRES
    75   39   40 1    
    76   39   95 1    
    77   40   41 1    
    78   40   42 1    
    79   40   96 1    
    80   41   97 1    
    81   41   98 1    
    82   41   99 1    
    83   42   43 2    
    84   42   44 am   BACKBONE|DICT|INTERRES
    85   44   45 1    
    86   44  100 1    
    87   45   46 1    
    88   45   47 1    
    89   45  101 1    
    90   46  102 1    
    91   46  103 1    
    92   46  104 1    
    93   47   48 2    
    94   47   49 am   BACKBONE|DICT|INTERRES
    95   49   50 1    
    96   49  105 1    
    97   50   51 1    
    98   50   52 1    
    99   50  106 1    
   100   51  107 1    
   101   51  108 1    
   102   51  109 1    
   103   52   53 2    
   104   52   54 am   BACKBONE|DICT|INTERRES
   105   54   55 1    
   106   54  110 1    
   107   55   56 1    
   108   55   59 1    
   109   55  111 1    
   110   56   57 am   BACKBONE|DICT|INTERRES
   111   56   58 2    
   112   57  112 1    
   113   57  113 1    
   114   59   60 1    
   115   59  114 1    
   116   59  115 1    
   117   60   61 1    
   118   61  116 1    
   119   61  117 1    
@<TRIPOS>SUBSTRUCTURE
     1 UNK         1 GROUP             0       ****    0 ROOT    
