@<TRIPOS>MOLECULE
3R8
117   119    1
SMALL
USER_CHARGES


@<TRIPOS>ATOM
      1 CA         13.0835  -28.0930  -48.3253 C.3       0 UNK        -0.2013 
      2 C          14.5109  -28.4303  -47.9209 C.2       0 UNK         0.4866 
      3 O          15.3461  -28.6970  -48.7858 O.2       0 UNK        -0.5176 
      4 N          14.7950  -28.4293  -46.6133 N.am      1 UNK        -0.4884 
      5 CA         16.1272  -28.6501  -46.0428 C.3       1 UNK         0.0853 
      6 C6         16.0523  -29.0258  -44.5399 C.3       10 UNK        -0.0849 
      7 S7         15.1064  -27.8415  -43.5162 S.3       10 UNK        -0.2776 
      8 C8         15.0343  -28.7209  -41.9244 C.3       10 UNK         0.0316 
      9 C9         16.4193  -28.9334  -41.3310 C.ar      10 UNK        -0.0863 
     10 C10        16.9564  -30.2200  -41.2377 C.ar      10 UNK        -0.1009 
     11 C11        18.2337  -30.4233  -40.7009 C.ar      10 UNK        -0.0712 
     12 C12        18.9589  -29.3211  -40.2358 C.ar      10 UNK        -0.0894 
     13 C13        18.4296  -28.0291  -40.3169 C.ar      10 UNK        -0.0745 
     14 C14        17.1595  -27.8426  -40.8680 C.ar      10 UNK        -0.0972 
     15 C15        19.2043  -26.8366  -39.7707 C.3       10 UNK         0.0209 
     16 S16        20.8474  -26.6384  -40.5289 S.3       10 UNK        -0.2568 
     17 C17        20.4488  -26.2087  -42.2592 C.3       10 UNK        -0.0983 
     18 CA         21.1048  -27.1792  -43.2826 C.3       3 UNK         0.0876 
     19 N          20.3698  -27.2720  -44.5508 N.am      3 UNK        -0.4424 
     20 C          20.0187  -26.2711  -45.3717 C.2       2 UNK         0.4918 
     21 O          20.1689  -25.0742  -45.1244 O.2       2 UNK        -0.4875 
     22 CA         19.3769  -26.6878  -46.7046 C.3       2 UNK         0.0481 
     23 CB         20.4423  -27.2057  -47.6848 C.3       2 UNK        -0.1831 
     24 N          18.3438  -27.7089  -46.5100 N.am      2 UNK        -0.4498 
     25 C          17.0515  -27.4369  -46.2898 C.2       1 UNK         0.5027 
     26 O          16.5856  -26.2938  -46.2693 O.2       1 UNK        -0.4969 
     27 C          22.6121  -26.8898  -43.5030 C.2       3 UNK         0.5005 
     28 O          23.0220  -26.4156  -44.5662 O.2       3 UNK        -0.5279 
     29 N          23.4183  -27.1962  -42.4835 N.am      4 UNK        -0.4463 
     30 CA         24.8630  -27.0030  -42.4118 C.3       4 UNK         0.0283 
     31 CB         25.5795  -28.1619  -43.1310 C.3       4 UNK        -0.1875 
     32 C          25.2731  -26.9394  -40.9337 C.2       4 UNK         0.4949 
     33 O          24.4518  -27.2038  -40.0526 O.2       4 UNK        -0.5039 
     34 N          26.5529  -26.6345  -40.6791 N.am      5 UNK        -0.4663 
     35 CA         27.1461  -26.5750  -39.3344 C.3       5 UNK         0.0242 
     36 CB         28.5782  -26.0258  -39.4363 C.3       5 UNK        -0.1982 
     37 C          27.1383  -27.9212  -38.5822 C.2       5 UNK         0.5017 
     38 O          27.0935  -27.9254  -37.3522 O.2       5 UNK        -0.5012 
     39 N          27.1488  -29.0300  -39.3340 N.am      6 UNK        -0.4439 
     40 CA         27.0288  -30.4048  -38.8388 C.3       6 UNK         0.0297 
     41 CB         27.9922  -31.2998  -39.6409 C.3       6 UNK        -0.2006 
     42 C          25.5770  -30.9260  -38.9109 C.2       6 UNK         0.4892 
     43 O          25.3768  -32.1407  -38.9650 O.2       6 UNK        -0.5089 
     44 N          24.5957  -30.0105  -38.9425 N.am      7 UNK        -0.4243 
     45 CA         23.1645  -30.2129  -39.1881 C.3       7 UNK         0.0196 
     46 CB         22.5020  -31.1701  -38.1746 C.3       7 UNK        -0.2007 
     47 C          22.9123  -30.6081  -40.6476 C.2       7 UNK         0.5020 
     48 O          22.4656  -29.7619  -41.4178 O.2       7 UNK        -0.5147 
     49 N          23.2181  -31.8641  -41.0046 N.am      8 UNK        -0.4734 
     50 CA         23.2239  -32.4954  -42.3395 C.3       8 UNK         0.0238 
     51 CB         24.3188  -31.8610  -43.2176 C.3       8 UNK        -0.1912 
     52 C          21.8897  -32.5269  -43.1156 C.2       8 UNK         0.5038 
     53 O          21.6719  -33.4621  -43.8860 O.2       8 UNK        -0.5046 
     54 N          21.0516  -31.5051  -42.9258 N.am      9 UNK        -0.4200 
     55 CA         19.7801  -31.2191  -43.6041 C.3       9 UNK         0.0839 
     56 C          19.9436  -30.7012  -45.0632 C.2       9 UNK         0.5513 
     57 N          21.1505  -30.4491  -45.5541 N.am      9 UNK        -0.7519 
     58 O          18.9560  -30.4429  -45.7444 O.2       9 UNK        -0.4960 
     59 C59        18.7268  -32.3607  -43.4996 C.3       10 UNK        -0.0876 
     60 S60        18.3078  -33.0330  -41.8422 S.3       10 UNK        -0.2414 
     61 C61        18.8524  -31.8158  -40.5865 C.3       10 UNK         0.0169 
     62 H62        12.6447  -28.9217  -48.8804 H         1 UNK         0.0903 
     63 H63        12.4514  -27.8918  -47.4605 H         1 UNK         0.0903 
     64 H64        13.0737  -27.2108  -48.9649 H         1 UNK         0.0903 
     65 H65        14.0863  -28.1631  -45.9436 H         1 UNK         0.3096 
     66 H66        16.5632  -29.5022  -46.5700 H         1 UNK         0.1121 
     67 H67        15.5875  -30.0078  -44.4394 H         1 UNK         0.0849 
     68 H68        17.0551  -29.1324  -44.1216 H         1 UNK         0.0849 
     69 H69        14.4297  -28.1410  -41.2257 H         1 UNK         0.0865 
     70 H70        14.5152  -29.6710  -42.0608 H         1 UNK         0.0865 
     71 H71        16.3760  -31.0620  -41.5873 H         1 UNK         0.1346 
     72 H72        19.9412  -29.4641  -39.8067 H         1 UNK         0.1412 
     73 H73        16.7393  -26.8482  -40.9352 H         1 UNK         0.1426 
     74 H74        18.6433  -25.9099  -39.9012 H         1 UNK         0.0716 
     75 H75        19.3317  -26.9677  -38.6954 H         1 UNK         0.0716 
     76 H76        19.3641  -26.2278  -42.3753 H         1 UNK         0.0695 
     77 H77        20.7480  -25.1757  -42.4453 H         1 UNK         0.0695 
     78 H78        21.0388  -28.1869  -42.8716 H         1 UNK         0.0983 
     79 H79        20.2359  -28.2112  -44.8923 H         1 UNK         0.3095 
     80 H80        18.9297  -25.7981  -47.1535 H         1 UNK         0.0454 
     81 H81        20.9424  -28.1000  -47.3144 H         1 UNK         0.0851 
     82 H82        20.0050  -27.4436  -48.6545 H         1 UNK         0.0851 
     83 H83        21.2122  -26.4516  -47.8537 H         1 UNK         0.0851 
     84 H84        18.6416  -28.6802  -46.4816 H         1 UNK         0.2976 
     85 H85        23.0118  -27.5769  -41.6326 H         1 UNK         0.3116 
     86 H86        25.1214  -26.0529  -42.8836 H         1 UNK         0.0646 
     87 H87        26.6551  -27.9921  -43.1840 H         1 UNK         0.0847 
     88 H88        25.2252  -28.2794  -44.1552 H         1 UNK         0.0847 
     89 H89        25.4235  -29.1077  -42.6118 H         1 UNK         0.0847 
     90 H90        27.1666  -26.4229  -41.4537 H         1 UNK         0.3040 
     91 H91        26.5521  -25.8751  -38.7420 H         1 UNK         0.1015 
     92 H92        28.5914  -25.0293  -39.8785 H         1 UNK         0.0786 
     93 H93        29.2173  -26.6713  -40.0403 H         1 UNK         0.0786 
     94 H94        29.0366  -25.9451  -38.4495 H         1 UNK         0.0786 
     95 H95        27.1774  -28.9133  -40.3367 H         1 UNK         0.3172 
     96 H96        27.3293  -30.4462  -37.7900 H         1 UNK         0.0595 
     97 H97        28.0019  -32.3180  -39.2493 H         1 UNK         0.0839 
     98 H98        29.0158  -30.9286  -39.5886 H         1 UNK         0.0839 
     99 H99        27.7085  -31.3581  -40.6925 H         1 UNK         0.0839 
    100 H100       24.8739  -29.0360  -38.9460 H         1 UNK         0.2998 
    101 H101       22.7024  -29.2335  -39.0494 H         1 UNK         0.0822 
    102 H102       22.6444  -30.8171  -37.1533 H         1 UNK         0.0787 
    103 H103       21.4268  -31.2302  -38.3476 H         1 UNK         0.0787 
    104 H104       22.8929  -32.1857  -38.2304 H         1 UNK         0.0787 
    105 H105       23.6153  -32.4365  -40.2678 H         1 UNK         0.3055 
    106 H106       23.4996  -33.5376  -42.1691 H         1 UNK         0.1106 
    107 H107       24.4345  -32.4084  -44.1541 H         1 UNK         0.0828 
    108 H108       24.0796  -30.8290  -43.4744 H         1 UNK         0.0828 
    109 H109       25.2868  -31.8693  -42.7164 H         1 UNK         0.0828 
    110 H110       21.3948  -30.7672  -42.3126 H         1 UNK         0.2931 
    111 H111       19.3777  -30.3541  -43.0808 H         1 UNK         0.0412 
    112 H112       21.2442  -30.1498  -46.5112 H         1 UNK         0.3472 
    113 H113       21.9730  -30.6608  -45.0135 H         1 UNK         0.3472 
    114 H114       19.0348  -33.2033  -44.1204 H         1 UNK         0.0970 
    115 H115       17.7846  -32.0192  -43.9320 H         1 UNK         0.0970 
    116 H116       19.9399  -31.7568  -40.5886 H         1 UNK         0.0612 
    117 H117       18.5852  -32.2139  -39.6071 H         1 UNK         0.0612 
@<TRIPOS>BOND
     1    1    2 1    
     2    1   62 1    
     3    1   63 1    
     4    1   64 1    
     5    2    3 2    
     6    2    4 am   BACKBONE|DICT|INTERRES
     7    4    5 1    
     8    4   65 1    
     9    5    6 1    
    10    5   25 1    
    11    5   66 1    
    12    6    7 1    
    13    6   67 1    
    14    6   68 1    
    15    7    8 1    
    16    8    9 1    
    17    8   69 1    
    18    8   70 1    
    19    9   10 ar   
    20    9   14 ar   
    21   10   11 ar   
    22   10   71 1    
    23   11   12 ar   
    24   11   61 1    
    25   12   13 ar   
    26   12   72 1    
    27   13   14 ar   
    28   13   15 1    
    29   14   73 1    
    30   15   16 1    
    31   15   74 1    
    32   15   75 1    
    33   16   17 1    
    34   17   18 1    
    35   17   76 1    
    36   17   77 1    
    37   18   19 1    
    38   18   27 1    
    39   18   78 1    
    40   19   20 am   BACKBONE|DICT|INTERRES
    41   19   79 1    
    42   20   21 2    
    43   20   22 1    
    44   22   23 1    
    45   22   24 1    
    46   22   80 1    
    47   23   81 1    
    48   23   82 1    
    49   23   83 1    
    50   24   25 am   BACKBONE|DICT|INTERRES
    51   24   84 1    
    52   25   26 2    
    53   27   28 2    
    54   27   29 am   BACKBONE|DICT|INTERRES
    55   29   30 1    
    56   29   85 1    
    57   30   31 1    
    58   30   32 1    
    59   30   86 1    
    60   31   87 1    
    61   31   88 1    
    62   31   89 1    
    63   32   33 2    
    64   32   34 am   BACKBONE|DICT|INTERRES
    65   34   35 1    
    66   34   90 1    
    67   35   36 1    
    68   35   37 1    
    69   35   91 1    
    70   36   92 1    
    71   36   93 1    
    72   36   94 1    
    73   37   38 2    
    74   37   39 am   BACKBONE|DICT|INTERRES
    75   39   40 1    
    76   39   95 1    
    77   40   41 1    
    78   40   42 1    
    79   40   96 1    
    80   41   97 1    
    81   41   98 1    
    82   41   99 1    
    83   42   43 2    
    84   42   44 am   BACKBONE|DICT|INTERRES
    85   44   45 1    
    86   44  100 1    
    87   45   46 1    
    88   45   47 1    
    89   45  101 1    
    90   46  102 1    
    91   46  103 1    
    92   46  104 1    
    93   47   48 2    
    94   47   49 am   BACKBONE|DICT|INTERRES
    95   49   50 1    
    96   49  105 1    
    97   50   51 1    
    98   50   52 1    
    99   50  106 1    
   100   51  107 1    
   101   51  108 1    
   102   51  109 1    
   103   52   53 2    
   104   52   54 am   BACKBONE|DICT|INTERRES
   105   54   55 1    
   106   54  110 1    
   107   55   56 1    
   108   55   59 1    
   109   55  111 1    
   110   56   57 am   BACKBONE|DICT|INTERRES
   111   56   58 2    
   112   57  112 1    
   113   57  113 1    
   114   59   60 1    
   115   59  114 1    
   116   59  115 1    
   117   60   61 1    
   118   61  116 1    
   119   61  117 1    
@<TRIPOS>SUBSTRUCTURE
     1 UNK         1 GROUP             0       ****    0 ROOT    
