@<TRIPOS>MOLECULE
3R8
117   119    1
SMALL
USER_CHARGES


@<TRIPOS>ATOM
      1 CA         15.2279  -25.0642  -47.4338 C.3       0 UNK        -0.2013 
      2 C          15.9505  -25.9034  -46.3912 C.2       0 UNK         0.4866 
      3 O          17.1758  -25.8336  -46.2897 O.2       0 UNK        -0.5176 
      4 N          15.2033  -26.6905  -45.6066 N.am      1 UNK        -0.4884 
      5 CA         15.7083  -27.5795  -44.5515 C.3       1 UNK         0.0853 
      6 C6         14.7237  -28.7464  -44.2777 C.3       10 UNK        -0.0849 
      7 S7         14.8341  -29.9928  -45.6064 S.3       10 UNK        -0.2776 
      8 C8         15.8688  -31.2831  -44.8310 C.3       10 UNK         0.0316 
      9 C9         17.1579  -30.7283  -44.2341 C.ar      10 UNK        -0.0863 
     10 C10        17.2889  -30.6027  -42.8479 C.ar      10 UNK        -0.1009 
     11 C11        18.4633  -30.0949  -42.2870 C.ar      10 UNK        -0.0712 
     12 C12        19.5144  -29.7087  -43.1231 C.ar      10 UNK        -0.0894 
     13 C13        19.4007  -29.8359  -44.5108 C.ar      10 UNK        -0.0745 
     14 C14        18.2191  -30.3460  -45.0606 C.ar      10 UNK        -0.0972 
     15 C15        20.5642  -29.4621  -45.4175 C.3       10 UNK         0.0209 
     16 S16        20.6234  -27.6730  -45.7535 S.3       10 UNK        -0.2568 
     17 C17        21.7207  -27.0764  -44.4229 C.3       10 UNK        -0.0983 
     18 CA         21.2534  -25.7340  -43.8053 C.3       3 UNK         0.0876 
     19 N          19.8979  -25.8257  -43.2565 N.am      3 UNK        -0.4424 
     20 C          19.1596  -24.7886  -42.8387 C.2       2 UNK         0.4918 
     21 O          19.5435  -23.6177  -42.8613 O.2       2 UNK        -0.4875 
     22 CA         17.7312  -25.1264  -42.3851 C.3       2 UNK         0.0481 
     23 CB         16.8760  -23.8816  -42.0748 C.3       2 UNK        -0.1831 
     24 N          17.1020  -25.9290  -43.4284 N.am      2 UNK        -0.4498 
     25 C          16.0946  -26.7930  -43.2806 C.2       1 UNK         0.5027 
     26 O          15.4915  -26.9699  -42.2204 O.2       1 UNK        -0.4969 
     27 C          22.2747  -25.2615  -42.7492 C.2       3 UNK         0.5005 
     28 O          22.1139  -25.5468  -41.5599 O.2       3 UNK        -0.5279 
     29 N          23.3416  -24.6007  -43.2199 N.am      4 UNK        -0.4463 
     30 CA         24.4862  -24.1649  -42.4096 C.3       4 UNK         0.0283 
     31 CB         25.1776  -22.9890  -43.1213 C.3       4 UNK        -0.1875 
     32 C          25.4986  -25.2927  -42.1166 C.2       4 UNK         0.4949 
     33 O          26.4547  -25.0623  -41.3749 O.2       4 UNK        -0.5039 
     34 N          25.2941  -26.4743  -42.7161 N.am      5 UNK        -0.4663 
     35 CA         26.0986  -27.6840  -42.5333 C.3       5 UNK         0.0242 
     36 CB         25.6178  -28.7427  -43.5399 C.3       5 UNK        -0.1982 
     37 C          26.0253  -28.2393  -41.0991 C.2       5 UNK         0.5017 
     38 O          25.0503  -27.9892  -40.3854 O.2       5 UNK        -0.5012 
     39 N          27.0445  -29.0203  -40.7184 N.am      6 UNK        -0.4439 
     40 CA         27.1982  -29.6490  -39.4030 C.3       6 UNK         0.0297 
     41 CB         28.6729  -30.0531  -39.2153 C.3       6 UNK        -0.2006 
     42 C          26.2323  -30.8335  -39.1943 C.2       6 UNK         0.4892 
     43 O          26.6697  -31.9842  -39.1412 O.2       6 UNK        -0.5089 
     44 N          24.9348  -30.5151  -39.0874 N.am      7 UNK        -0.4243 
     45 CA         23.8024  -31.4163  -38.8399 C.3       7 UNK         0.0196 
     46 CB         23.8909  -32.0316  -37.4268 C.3       7 UNK        -0.2007 
     47 C          23.6006  -32.4756  -39.9410 C.2       7 UNK         0.5020 
     48 O          23.1734  -33.5947  -39.6503 O.2       7 UNK        -0.5147 
     49 N          23.8675  -32.1025  -41.2006 N.am      8 UNK        -0.4734 
     50 CA         23.6798  -32.9387  -42.3942 C.3       8 UNK         0.0238 
     51 CB         24.6075  -32.4265  -43.5120 C.3       8 UNK        -0.1912 
     52 C          22.2006  -32.9999  -42.8342 C.2       8 UNK         0.5038 
     53 O          21.8904  -32.7461  -43.9993 O.2       8 UNK        -0.5046 
     54 N          21.3179  -33.3050  -41.8784 N.am      9 UNK        -0.4200 
     55 CA         19.8545  -33.2814  -42.0142 C.3       9 UNK         0.0839 
     56 C          19.2362  -34.6202  -42.5070 C.2       9 UNK         0.5513 
     57 N          20.0150  -35.6719  -42.7322 N.am      9 UNK        -0.7519 
     58 O          18.0258  -34.7065  -42.6963 O.2       9 UNK        -0.4960 
     59 C59        19.1757  -32.7836  -40.7067 C.3       10 UNK        -0.0876 
     60 S60        19.8332  -31.1770  -40.1254 S.3       10 UNK        -0.2414 
     61 C61        18.6071  -29.9961  -40.7754 C.3       10 UNK         0.0169 
     62 H62        14.1505  -25.2270  -47.4141 H         1 UNK         0.0903 
     63 H63        15.4148  -24.0053  -47.2577 H         1 UNK         0.0903 
     64 H64        15.5902  -25.3131  -48.4309 H         1 UNK         0.0903 
     65 H65        14.2002  -26.6922  -45.7273 H         1 UNK         0.3096 
     66 H66        16.6457  -28.0152  -44.9043 H         1 UNK         0.1121 
     67 H67        14.9230  -29.2358  -43.3235 H         1 UNK         0.0849 
     68 H68        13.6974  -28.3819  -44.2085 H         1 UNK         0.0849 
     69 H69        16.1125  -32.0392  -45.5787 H         1 UNK         0.0865 
     70 H70        15.2822  -31.7952  -44.0665 H         1 UNK         0.0865 
     71 H71        16.4766  -30.9075  -42.2023 H         1 UNK         0.1346 
     72 H72        20.4308  -29.3419  -42.6841 H         1 UNK         0.1412 
     73 H73        18.1227  -30.4464  -46.1333 H         1 UNK         0.1426 
     74 H74        21.5061  -29.8006  -44.9825 H         1 UNK         0.0716 
     75 H75        20.4739  -29.9870  -46.3697 H         1 UNK         0.0716 
     76 H76        21.8137  -27.8377  -43.6477 H         1 UNK         0.0695 
     77 H77        22.7161  -26.9717  -44.8587 H         1 UNK         0.0695 
     78 H78        21.2231  -24.9838  -44.5990 H         1 UNK         0.0983 
     79 H79        19.5014  -26.7523  -43.2130 H         1 UNK         0.3095 
     80 H80        17.8176  -25.7271  -41.4774 H         1 UNK         0.0454 
     81 H81        16.7513  -23.2509  -42.9557 H         1 UNK         0.0851 
     82 H82        15.8840  -24.1578  -41.7178 H         1 UNK         0.0851 
     83 H83        17.3394  -23.2726  -41.2977 H         1 UNK         0.0851 
     84 H84        17.4854  -25.8223  -44.3660 H         1 UNK         0.2976 
     85 H85        23.3999  -24.4101  -44.2110 H         1 UNK         0.3116 
     86 H86        24.1166  -23.8067  -41.4463 H         1 UNK         0.0646 
     87 H87        26.0048  -22.6017  -42.5248 H         1 UNK         0.0847 
     88 H88        24.4871  -22.1614  -43.2850 H         1 UNK         0.0847 
     89 H89        25.5858  -23.2843  -44.0886 H         1 UNK         0.0847 
     90 H90        24.4698  -26.5667  -43.2876 H         1 UNK         0.3040 
     91 H91        27.1383  -27.4290  -42.7510 H         1 UNK         0.1015 
     92 H92        25.7107  -28.3866  -44.5662 H         1 UNK         0.0786 
     93 H93        24.5739  -29.0114  -43.3721 H         1 UNK         0.0786 
     94 H94        26.2083  -29.6568  -43.4647 H         1 UNK         0.0786 
     95 H95        27.7800  -29.2078  -41.3852 H         1 UNK         0.3172 
     96 H96        26.9645  -28.9044  -38.6386 H         1 UNK         0.0595 
     97 H97        28.8315  -30.5053  -38.2352 H         1 UNK         0.0839 
     98 H98        29.3338  -29.1885  -39.2800 H         1 UNK         0.0839 
     99 H99        28.9938  -30.7788  -39.9638 H         1 UNK         0.0839 
    100 H100       24.6992  -29.5374  -39.2398 H         1 UNK         0.2998 
    101 H101       22.9087  -30.7907  -38.8668 H         1 UNK         0.0822 
    102 H102       22.9846  -32.5880  -37.1845 H         1 UNK         0.0787 
    103 H103       24.7297  -32.7228  -37.3383 H         1 UNK         0.0787 
    104 H104       24.0085  -31.2611  -36.6649 H         1 UNK         0.0787 
    105 H105       24.1819  -31.1562  -41.3559 H         1 UNK         0.3055 
    106 H106       23.9828  -33.9608  -42.1551 H         1 UNK         0.1106 
    107 H107       24.5691  -33.0844  -44.3813 H         1 UNK         0.0828 
    108 H108       24.3210  -31.4301  -43.8486 H         1 UNK         0.0828 
    109 H109       25.6462  -32.3883  -43.1833 H         1 UNK         0.0828 
    110 H110       21.6810  -33.5088  -40.9534 H         1 UNK         0.2931 
    111 H111       19.6101  -32.5632  -42.7972 H         1 UNK         0.0412 
    112 H112       19.6029  -36.5334  -43.0551 H         1 UNK         0.3472 
    113 H113       21.0096  -35.6105  -42.5845 H         1 UNK         0.3472 
    114 H114       19.3210  -33.5129  -39.9079 H         1 UNK         0.0970 
    115 H115       18.0958  -32.6984  -40.8401 H         1 UNK         0.0970 
    116 H116       18.9146  -28.9839  -40.5091 H         1 UNK         0.0612 
    117 H117       17.6502  -30.1673  -40.2799 H         1 UNK         0.0612 
@<TRIPOS>BOND
     1    1    2 1    
     2    1   62 1    
     3    1   63 1    
     4    1   64 1    
     5    2    3 2    
     6    2    4 am   BACKBONE|DICT|INTERRES
     7    4    5 1    
     8    4   65 1    
     9    5    6 1    
    10    5   25 1    
    11    5   66 1    
    12    6    7 1    
    13    6   67 1    
    14    6   68 1    
    15    7    8 1    
    16    8    9 1    
    17    8   69 1    
    18    8   70 1    
    19    9   10 ar   
    20    9   14 ar   
    21   10   11 ar   
    22   10   71 1    
    23   11   12 ar   
    24   11   61 1    
    25   12   13 ar   
    26   12   72 1    
    27   13   14 ar   
    28   13   15 1    
    29   14   73 1    
    30   15   16 1    
    31   15   74 1    
    32   15   75 1    
    33   16   17 1    
    34   17   18 1    
    35   17   76 1    
    36   17   77 1    
    37   18   19 1    
    38   18   27 1    
    39   18   78 1    
    40   19   20 am   BACKBONE|DICT|INTERRES
    41   19   79 1    
    42   20   21 2    
    43   20   22 1    
    44   22   23 1    
    45   22   24 1    
    46   22   80 1    
    47   23   81 1    
    48   23   82 1    
    49   23   83 1    
    50   24   25 am   BACKBONE|DICT|INTERRES
    51   24   84 1    
    52   25   26 2    
    53   27   28 2    
    54   27   29 am   BACKBONE|DICT|INTERRES
    55   29   30 1    
    56   29   85 1    
    57   30   31 1    
    58   30   32 1    
    59   30   86 1    
    60   31   87 1    
    61   31   88 1    
    62   31   89 1    
    63   32   33 2    
    64   32   34 am   BACKBONE|DICT|INTERRES
    65   34   35 1    
    66   34   90 1    
    67   35   36 1    
    68   35   37 1    
    69   35   91 1    
    70   36   92 1    
    71   36   93 1    
    72   36   94 1    
    73   37   38 2    
    74   37   39 am   BACKBONE|DICT|INTERRES
    75   39   40 1    
    76   39   95 1    
    77   40   41 1    
    78   40   42 1    
    79   40   96 1    
    80   41   97 1    
    81   41   98 1    
    82   41   99 1    
    83   42   43 2    
    84   42   44 am   BACKBONE|DICT|INTERRES
    85   44   45 1    
    86   44  100 1    
    87   45   46 1    
    88   45   47 1    
    89   45  101 1    
    90   46  102 1    
    91   46  103 1    
    92   46  104 1    
    93   47   48 2    
    94   47   49 am   BACKBONE|DICT|INTERRES
    95   49   50 1    
    96   49  105 1    
    97   50   51 1    
    98   50   52 1    
    99   50  106 1    
   100   51  107 1    
   101   51  108 1    
   102   51  109 1    
   103   52   53 2    
   104   52   54 am   BACKBONE|DICT|INTERRES
   105   54   55 1    
   106   54  110 1    
   107   55   56 1    
   108   55   59 1    
   109   55  111 1    
   110   56   57 am   BACKBONE|DICT|INTERRES
   111   56   58 2    
   112   57  112 1    
   113   57  113 1    
   114   59   60 1    
   115   59  114 1    
   116   59  115 1    
   117   60   61 1    
   118   61  116 1    
   119   61  117 1    
@<TRIPOS>SUBSTRUCTURE
     1 UNK         1 GROUP             0       ****    0 ROOT    
