@<TRIPOS>MOLECULE
3R8
117   119    1
SMALL
USER_CHARGES


@<TRIPOS>ATOM
      1 CA         20.2099  -28.1938  -38.0543 C.3       0 UNK        -0.2013 
      2 C          20.3097  -28.7699  -39.4571 C.2       0 UNK         0.4866 
      3 O          20.7278  -29.9156  -39.6164 O.2       0 UNK        -0.5176 
      4 N          19.9615  -27.9773  -40.4743 N.am      1 UNK        -0.4884 
      5 CA         19.9021  -28.3661  -41.8819 C.3       1 UNK         0.0853 
      6 C6         21.2620  -28.2549  -42.6212 C.3       10 UNK        -0.0849 
      7 S7         22.2876  -29.7440  -42.3791 S.3       10 UNK        -0.2776 
      8 C8         22.5136  -30.3537  -44.0787 C.3       10 UNK         0.0316 
      9 C9         21.1988  -30.5595  -44.8215 C.ar      10 UNK        -0.0863 
     10 C10        20.0783  -31.1105  -44.1910 C.ar      10 UNK        -0.1009 
     11 C11        18.8637  -31.2472  -44.8723 C.ar      10 UNK        -0.0712 
     12 C12        18.7865  -30.8218  -46.2061 C.ar      10 UNK        -0.0894 
     13 C13        19.9059  -30.2863  -46.8549 C.ar      10 UNK        -0.0745 
     14 C14        21.1101  -30.1768  -46.1584 C.ar      10 UNK        -0.0972 
     15 C15        19.8413  -29.8630  -48.3184 C.3       10 UNK         0.0209 
     16 S16        19.2858  -28.1397  -48.5518 S.3       10 UNK        -0.2568 
     17 C17        20.6218  -27.1491  -47.7809 C.3       10 UNK        -0.0983 
     18 CA         20.1033  -26.1835  -46.6797 C.3       3 UNK         0.0876 
     19 N          19.1858  -26.8418  -45.7465 N.am      3 UNK        -0.4424 
     20 C          17.9876  -26.3751  -45.3685 C.2       2 UNK         0.4918 
     21 O          17.5137  -25.3031  -45.7427 O.2       2 UNK        -0.4875 
     22 CA         17.2051  -27.2393  -44.3634 C.3       2 UNK         0.0481 
     23 CB         16.2474  -28.1892  -45.0988 C.3       2 UNK        -0.1831 
     24 N          18.0994  -28.0096  -43.4933 N.am      2 UNK        -0.4498 
     25 C          18.8651  -27.4556  -42.5433 C.2       1 UNK         0.5027 
     26 O          18.8209  -26.2632  -42.2286 O.2       1 UNK        -0.4969 
     27 C          21.2428  -25.4653  -45.9147 C.2       3 UNK         0.5005 
     28 O          22.3656  -25.3854  -46.4143 O.2       3 UNK        -0.5279 
     29 N          20.9354  -24.9559  -44.7103 N.am      4 UNK        -0.4463 
     30 CA         21.7133  -24.0531  -43.8447 C.3       4 UNK         0.0283 
     31 CB         22.0011  -22.7210  -44.5642 C.3       4 UNK        -0.1875 
     32 C          23.0041  -24.6064  -43.2083 C.2       4 UNK         0.4949 
     33 O          23.3798  -24.1234  -42.1393 O.2       4 UNK        -0.5039 
     34 N          23.6680  -25.5877  -43.8306 N.am      5 UNK        -0.4663 
     35 CA         24.9458  -26.1780  -43.3956 C.3       5 UNK         0.0242 
     36 CB         25.5941  -26.8689  -44.6105 C.3       5 UNK        -0.1982 
     37 C          24.8115  -27.1249  -42.1784 C.2       5 UNK         0.5017 
     38 O          25.2234  -28.2820  -42.2630 O.2       5 UNK        -0.5012 
     39 N          24.2041  -26.6067  -41.1005 N.am      6 UNK        -0.4439 
     40 CA         23.6498  -27.2843  -39.9213 C.3       6 UNK         0.0297 
     41 CB         23.3932  -26.2393  -38.8224 C.3       6 UNK        -0.2006 
     42 C          24.4414  -28.4797  -39.3632 C.2       6 UNK         0.4892 
     43 O          25.5564  -28.2827  -38.8754 O.2       6 UNK        -0.5089 
     44 N          23.8178  -29.6687  -39.3947 N.am      7 UNK        -0.4243 
     45 CA         24.3220  -30.9277  -38.8426 C.3       7 UNK         0.0196 
     46 CB         25.6773  -31.3315  -39.4671 C.3       7 UNK        -0.2007 
     47 C          23.3193  -32.0757  -39.0368 C.2       7 UNK         0.5020 
     48 O          23.0422  -32.8026  -38.0827 O.2       7 UNK        -0.5147 
     49 N          22.8569  -32.2729  -40.2789 N.am      8 UNK        -0.4734 
     50 CA         22.2592  -33.5358  -40.7272 C.3       8 UNK         0.0238 
     51 CB         22.5175  -33.7071  -42.2327 C.3       8 UNK        -0.1912 
     52 C          20.7608  -33.7118  -40.4345 C.2       8 UNK         0.5038 
     53 O          20.3224  -34.8607  -40.3517 O.2       8 UNK        -0.5046 
     54 N          20.0022  -32.6154  -40.3136 N.am      9 UNK        -0.4200 
     55 CA         18.5370  -32.6343  -40.1293 C.3       9 UNK         0.0839 
     56 C          18.0786  -32.0178  -38.7761 C.2       9 UNK         0.5513 
     57 N          18.9740  -31.7022  -37.8490 N.am      9 UNK        -0.7519 
     58 O          16.8835  -31.8521  -38.5450 O.2       9 UNK        -0.4960 
     59 C59        17.7817  -32.0345  -41.3514 C.3       10 UNK        -0.0876 
     60 S60        17.9614  -33.0448  -42.8656 S.3       10 UNK        -0.2414 
     61 C61        17.6211  -31.8339  -44.1960 C.3       10 UNK         0.0169 
     62 H62        21.1203  -28.4081  -37.4955 H         1 UNK         0.0903 
     63 H63        20.0650  -27.1138  -38.0670 H         1 UNK         0.0903 
     64 H64        19.3724  -28.6472  -37.5253 H         1 UNK         0.0903 
     65 H65        19.6114  -27.0421  -40.3025 H         1 UNK         0.3096 
     66 H66        19.5379  -29.3898  -41.9440 H         1 UNK         0.1121 
     67 H67        21.8052  -27.3706  -42.2932 H         1 UNK         0.0849 
     68 H68        21.1254  -28.1104  -43.6938 H         1 UNK         0.0849 
     69 H69        23.1467  -29.6388  -44.6070 H         1 UNK         0.0865 
     70 H70        23.0674  -31.2921  -44.0570 H         1 UNK         0.0865 
     71 H71        20.1570  -31.4240  -43.1604 H         1 UNK         0.1346 
     72 H72        17.8557  -30.9191  -46.7484 H         1 UNK         0.1412 
     73 H73        21.9867  -29.7890  -46.6583 H         1 UNK         0.1426 
     74 H74        19.1590  -30.5226  -48.8565 H         1 UNK         0.0716 
     75 H75        20.8156  -29.9902  -48.7931 H         1 UNK         0.0716 
     76 H76        21.3955  -27.8036  -47.3873 H         1 UNK         0.0695 
     77 H77        21.1058  -26.5767  -48.5742 H         1 UNK         0.0695 
     78 H78        19.5641  -25.3888  -47.2000 H         1 UNK         0.0983 
     79 H79        19.4752  -27.7496  -45.4155 H         1 UNK         0.3095 
     80 H80        16.6074  -26.5719  -43.7387 H         1 UNK         0.0454 
     81 H81        15.5312  -27.6264  -45.6992 H         1 UNK         0.0851 
     82 H82        16.7773  -28.8582  -45.7762 H         1 UNK         0.0851 
     83 H83        15.6731  -28.7978  -44.4004 H         1 UNK         0.0851 
     84 H84        18.1979  -28.9926  -43.7025 H         1 UNK         0.2976 
     85 H85        19.9966  -25.1343  -44.3784 H         1 UNK         0.3116 
     86 H86        21.0486  -23.8291  -43.0086 H         1 UNK         0.0646 
     87 H87        22.4815  -22.0091  -43.8914 H         1 UNK         0.0847 
     88 H88        21.0829  -22.2556  -44.9226 H         1 UNK         0.0847 
     89 H89        22.6656  -22.8554  -45.4184 H         1 UNK         0.0847 
     90 H90        23.3120  -25.8762  -44.7363 H         1 UNK         0.3040 
     91 H91        25.6088  -25.3664  -43.0873 H         1 UNK         0.1015 
     92 H92        25.7394  -26.1696  -45.4342 H         1 UNK         0.0786 
     93 H93        24.9828  -27.6950  -44.9759 H         1 UNK         0.0786 
     94 H94        26.5745  -27.2740  -44.3559 H         1 UNK         0.0786 
     95 H95        23.9374  -25.6298  -41.1987 H         1 UNK         0.3172 
     96 H96        22.6813  -27.6581  -40.2333 H         1 UNK         0.0595 
     97 H97        22.9808  -26.7022  -37.9251 H         1 UNK         0.0839 
     98 H98        22.6815  -25.4816  -39.1512 H         1 UNK         0.0839 
     99 H99        24.3138  -25.7320  -38.5314 H         1 UNK         0.0839 
    100 H100       22.8801  -29.7170  -39.7835 H         1 UNK         0.2998 
    101 H101       24.4590  -30.7884  -37.7685 H         1 UNK         0.0822 
    102 H102       26.4840  -30.6706  -39.1522 H         1 UNK         0.0787 
    103 H103       25.9660  -32.3397  -39.1659 H         1 UNK         0.0787 
    104 H104       25.6386  -31.3140  -40.5570 H         1 UNK         0.0787 
    105 H105       23.0812  -31.5959  -40.9968 H         1 UNK         0.3055 
    106 H106       22.7746  -34.3520  -40.2148 H         1 UNK         0.1106 
    107 H107       23.5764  -33.6127  -42.4733 H         1 UNK         0.0828 
    108 H108       22.1958  -34.6927  -42.5722 H         1 UNK         0.0828 
    109 H109       21.9675  -32.9731  -42.8194 H         1 UNK         0.0828 
    110 H110       20.4421  -31.6985  -40.2919 H         1 UNK         0.2931 
    111 H111       18.2007  -33.6690  -40.0468 H         1 UNK         0.0412 
    112 H112       18.6638  -31.3241  -36.9685 H         1 UNK         0.3472 
    113 H113       19.9589  -31.7992  -38.0426 H         1 UNK         0.3472 
    114 H114       18.1135  -31.0162  -41.5391 H         1 UNK         0.0970 
    115 H115       16.7114  -31.9664  -41.1482 H         1 UNK         0.0970 
    116 H116       17.0025  -31.0243  -43.8079 H         1 UNK         0.0612 
    117 H117       17.0159  -32.3442  -44.9467 H         1 UNK         0.0612 
@<TRIPOS>BOND
     1    1    2 1    
     2    1   62 1    
     3    1   63 1    
     4    1   64 1    
     5    2    3 2    
     6    2    4 am   BACKBONE|DICT|INTERRES
     7    4    5 1    
     8    4   65 1    
     9    5    6 1    
    10    5   25 1    
    11    5   66 1    
    12    6    7 1    
    13    6   67 1    
    14    6   68 1    
    15    7    8 1    
    16    8    9 1    
    17    8   69 1    
    18    8   70 1    
    19    9   10 ar   
    20    9   14 ar   
    21   10   11 ar   
    22   10   71 1    
    23   11   12 ar   
    24   11   61 1    
    25   12   13 ar   
    26   12   72 1    
    27   13   14 ar   
    28   13   15 1    
    29   14   73 1    
    30   15   16 1    
    31   15   74 1    
    32   15   75 1    
    33   16   17 1    
    34   17   18 1    
    35   17   76 1    
    36   17   77 1    
    37   18   19 1    
    38   18   27 1    
    39   18   78 1    
    40   19   20 am   BACKBONE|DICT|INTERRES
    41   19   79 1    
    42   20   21 2    
    43   20   22 1    
    44   22   23 1    
    45   22   24 1    
    46   22   80 1    
    47   23   81 1    
    48   23   82 1    
    49   23   83 1    
    50   24   25 am   BACKBONE|DICT|INTERRES
    51   24   84 1    
    52   25   26 2    
    53   27   28 2    
    54   27   29 am   BACKBONE|DICT|INTERRES
    55   29   30 1    
    56   29   85 1    
    57   30   31 1    
    58   30   32 1    
    59   30   86 1    
    60   31   87 1    
    61   31   88 1    
    62   31   89 1    
    63   32   33 2    
    64   32   34 am   BACKBONE|DICT|INTERRES
    65   34   35 1    
    66   34   90 1    
    67   35   36 1    
    68   35   37 1    
    69   35   91 1    
    70   36   92 1    
    71   36   93 1    
    72   36   94 1    
    73   37   38 2    
    74   37   39 am   BACKBONE|DICT|INTERRES
    75   39   40 1    
    76   39   95 1    
    77   40   41 1    
    78   40   42 1    
    79   40   96 1    
    80   41   97 1    
    81   41   98 1    
    82   41   99 1    
    83   42   43 2    
    84   42   44 am   BACKBONE|DICT|INTERRES
    85   44   45 1    
    86   44  100 1    
    87   45   46 1    
    88   45   47 1    
    89   45  101 1    
    90   46  102 1    
    91   46  103 1    
    92   46  104 1    
    93   47   48 2    
    94   47   49 am   BACKBONE|DICT|INTERRES
    95   49   50 1    
    96   49  105 1    
    97   50   51 1    
    98   50   52 1    
    99   50  106 1    
   100   51  107 1    
   101   51  108 1    
   102   51  109 1    
   103   52   53 2    
   104   52   54 am   BACKBONE|DICT|INTERRES
   105   54   55 1    
   106   54  110 1    
   107   55   56 1    
   108   55   59 1    
   109   55  111 1    
   110   56   57 am   BACKBONE|DICT|INTERRES
   111   56   58 2    
   112   57  112 1    
   113   57  113 1    
   114   59   60 1    
   115   59  114 1    
   116   59  115 1    
   117   60   61 1    
   118   61  116 1    
   119   61  117 1    
@<TRIPOS>SUBSTRUCTURE
     1 UNK         1 GROUP             0       ****    0 ROOT    
