@<TRIPOS>MOLECULE
3R8
117   119    1
SMALL
USER_CHARGES


@<TRIPOS>ATOM
      1 CA         18.1166  -22.7471  -42.9915 C.3       0 UNK        -0.2013 
      2 C          18.0508  -24.1337  -43.6148 C.2       0 UNK         0.4866 
      3 O          18.3488  -25.1200  -42.9404 O.2       0 UNK        -0.5176 
      4 N          17.6630  -24.2139  -44.8961 N.am      1 UNK        -0.4884 
      5 CA         17.5328  -25.4490  -45.6816 C.3       1 UNK         0.0853 
      6 C6         16.3855  -26.3532  -45.1452 C.3       10 UNK        -0.0849 
      7 S7         15.7409  -27.5526  -46.3680 S.3       10 UNK        -0.2776 
      8 C8         14.8490  -28.7414  -45.3114 C.3       10 UNK         0.0316 
      9 C9         15.7846  -29.5657  -44.4354 C.ar      10 UNK        -0.0863 
     10 C10        16.3345  -30.7648  -44.9032 C.ar      10 UNK        -0.1009 
     11 C11        17.1655  -31.5361  -44.0805 C.ar      10 UNK        -0.0712 
     12 C12        17.4609  -31.0846  -42.7903 C.ar      10 UNK        -0.0894 
     13 C13        16.9366  -29.8773  -42.3228 C.ar      10 UNK        -0.0745 
     14 C14        16.0782  -29.1394  -43.1381 C.ar      10 UNK        -0.0972 
     15 C15        17.2906  -29.3572  -40.9396 C.3       10 UNK         0.0209 
     16 S16        18.5806  -28.0744  -41.0292 S.3       10 UNK        -0.2568 
     17 C17        20.0830  -29.0754  -41.2954 C.3       10 UNK        -0.0983 
     18 CA         20.9733  -28.6356  -42.4861 C.3       3 UNK         0.0876 
     19 N          20.2582  -28.5397  -43.7641 N.am      3 UNK        -0.4424 
     20 C          20.8740  -28.5901  -44.9567 C.2       2 UNK         0.4918 
     21 O          22.0780  -28.8103  -45.0912 O.2       2 UNK        -0.4875 
     22 CA         20.0323  -28.3460  -46.2205 C.3       2 UNK         0.0481 
     23 CB         19.5697  -29.6687  -46.8445 C.3       2 UNK        -0.1831 
     24 N          18.8671  -27.4962  -45.9933 N.am      2 UNK        -0.4498 
     25 C          18.8976  -26.1669  -45.8464 C.2       1 UNK         0.5027 
     26 O          19.9402  -25.5073  -45.8717 O.2       1 UNK        -0.4969 
     27 C          21.7775  -27.3554  -42.1823 C.2       3 UNK         0.5005 
     28 O          22.9302  -27.4637  -41.7544 O.2       3 UNK        -0.5279 
     29 N          21.1747  -26.1814  -42.4357 N.am      4 UNK        -0.4463 
     30 CA         21.7229  -24.8201  -42.3452 C.3       4 UNK         0.0283 
     31 CB         22.8597  -24.6112  -43.3647 C.3       4 UNK        -0.1875 
     32 C          22.1469  -24.3827  -40.9315 C.2       4 UNK         0.4949 
     33 O          21.6262  -23.3922  -40.4191 O.2       4 UNK        -0.5039 
     34 N          23.0832  -25.1297  -40.3437 N.am      5 UNK        -0.4663 
     35 CA         23.6784  -24.9610  -39.0179 C.3       5 UNK         0.0242 
     36 CB         24.4343  -23.6215  -38.8992 C.3       5 UNK        -0.1982 
     37 C          24.6303  -26.1298  -38.7268 C.2       5 UNK         0.5017 
     38 O          24.6890  -26.5921  -37.5876 O.2       5 UNK        -0.5012 
     39 N          25.3523  -26.5876  -39.7622 N.am      6 UNK        -0.4439 
     40 CA         26.3045  -27.7008  -39.7043 C.3       6 UNK         0.0297 
     41 CB         27.1563  -27.7011  -40.9842 C.3       6 UNK        -0.2006 
     42 C          25.6451  -29.0777  -39.5039 C.2       6 UNK         0.4892 
     43 O          26.2843  -29.9632  -38.9339 O.2       6 UNK        -0.5089 
     44 N          24.3951  -29.2273  -39.9679 N.am      7 UNK        -0.4243 
     45 CA         23.5803  -30.4448  -39.9328 C.3       7 UNK         0.0196 
     46 CB         23.2568  -30.8624  -38.4793 C.3       7 UNK        -0.2007 
     47 C          24.1706  -31.5641  -40.8124 C.2       7 UNK         0.5020 
     48 O          24.6849  -31.2691  -41.8924 O.2       7 UNK        -0.5147 
     49 N          24.0343  -32.8232  -40.3681 N.am      8 UNK        -0.4734 
     50 CA         24.4306  -34.0603  -41.0620 C.3       8 UNK         0.0238 
     51 CB         25.9637  -34.1316  -41.2343 C.3       8 UNK        -0.1912 
     52 C          23.6681  -34.3025  -42.3835 C.2       8 UNK         0.5038 
     53 O          24.1986  -34.9500  -43.2883 O.2       8 UNK        -0.5046 
     54 N          22.4354  -33.7842  -42.4654 N.am      9 UNK        -0.4200 
     55 CA         21.5062  -33.9738  -43.5855 C.3       9 UNK         0.0839 
     56 C          20.9852  -35.4367  -43.6519 C.2       9 UNK         0.5513 
     57 N          20.9189  -36.0250  -44.8380 N.am      9 UNK        -0.7519 
     58 O          20.6140  -36.0262  -42.6388 O.2       9 UNK        -0.4960 
     59 C59        20.3495  -32.9442  -43.5017 C.3       10 UNK        -0.0876 
     60 S60        19.4617  -32.7514  -45.0849 S.3       10 UNK        -0.2414 
     61 C61        17.7174  -32.8690  -44.5736 C.3       10 UNK         0.0169 
     62 H62        17.4592  -22.6971  -42.1240 H         1 UNK         0.0903 
     63 H63        17.8125  -21.9695  -43.6919 H         1 UNK         0.0903 
     64 H64        19.1311  -22.5275  -42.6609 H         1 UNK         0.0903 
     65 H65        17.4714  -23.3612  -45.4043 H         1 UNK         0.3096 
     66 H66        17.2559  -25.1241  -46.6859 H         1 UNK         0.1121 
     67 H67        16.7185  -26.8592  -44.2416 H         1 UNK         0.0849 
     68 H68        15.5407  -25.7338  -44.8394 H         1 UNK         0.0849 
     69 H69        14.1242  -28.2057  -44.6961 H         1 UNK         0.0865 
     70 H70        14.2654  -29.4071  -45.9491 H         1 UNK         0.0865 
     71 H71        16.1028  -31.1049  -45.9035 H         1 UNK         0.1346 
     72 H72        18.0983  -31.6715  -42.1463 H         1 UNK         0.1412 
     73 H73        15.6520  -28.2192  -42.7617 H         1 UNK         0.1426 
     74 H74        17.6164  -30.1677  -40.2857 H         1 UNK         0.0716 
     75 H75        16.4019  -28.9293  -40.4733 H         1 UNK         0.0716 
     76 H76        20.6502  -29.0587  -40.3637 H         1 UNK         0.0695 
     77 H77        19.8001  -30.1180  -41.4372 H         1 UNK         0.0695 
     78 H78        21.7211  -29.4235  -42.6064 H         1 UNK         0.0983 
     79 H79        19.2652  -28.3616  -43.7190 H         1 UNK         0.3095 
     80 H80        20.6797  -27.8487  -46.9460 H         1 UNK         0.0454 
     81 H81        20.4054  -30.3571  -46.9776 H         1 UNK         0.0851 
     82 H82        18.8293  -30.1654  -46.2194 H         1 UNK         0.0851 
     83 H83        19.1224  -29.5089  -47.8255 H         1 UNK         0.0851 
     84 H84        17.9608  -27.9490  -45.9887 H         1 UNK         0.2976 
     85 H85        20.1976  -26.2089  -42.7113 H         1 UNK         0.3116 
     86 H86        20.9102  -24.1577  -42.6408 H         1 UNK         0.0646 
     87 H87        23.2273  -23.5848  -43.3339 H         1 UNK         0.0847 
     88 H88        22.5128  -24.8003  -44.3810 H         1 UNK         0.0847 
     89 H89        23.7104  -25.2666  -43.1767 H         1 UNK         0.0847 
     90 H90        23.3090  -25.9981  -40.8281 H         1 UNK         0.3040 
     91 H91        22.8765  -24.9878  -38.2772 H         1 UNK         0.1015 
     92 H92        23.7594  -22.7686  -38.9664 H         1 UNK         0.0786 
     93 H93        25.1888  -23.5133  -39.6792 H         1 UNK         0.0786 
     94 H94        24.9447  -23.5454  -37.9379 H         1 UNK         0.0786 
     95 H95        25.2603  -26.1215  -40.6530 H         1 UNK         0.3172 
     96 H96        26.9682  -27.5286  -38.8543 H         1 UNK         0.0595 
     97 H97        27.8962  -28.5026  -40.9592 H         1 UNK         0.0839 
     98 H98        27.7010  -26.7641  -41.1016 H         1 UNK         0.0839 
     99 H99        26.5453  -27.8517  -41.8754 H         1 UNK         0.0839 
    100 H100       23.9934  -28.4594  -40.4991 H         1 UNK         0.2998 
    101 H101       22.6387  -30.1788  -40.4078 H         1 UNK         0.0822 
    102 H102       24.1336  -31.2494  -37.9585 H         1 UNK         0.0787 
    103 H103       22.8819  -30.0150  -37.9048 H         1 UNK         0.0787 
    104 H104       22.4829  -31.6300  -38.4464 H         1 UNK         0.0787 
    105 H105       23.5991  -32.9524  -39.4643 H         1 UNK         0.3055 
    106 H106       24.1411  -34.8828  -40.4056 H         1 UNK         0.1106 
    107 H107       26.3274  -33.3901  -41.9462 H         1 UNK         0.0828 
    108 H108       26.4779  -33.9676  -40.2874 H         1 UNK         0.0828 
    109 H109       26.2718  -35.1111  -41.6024 H         1 UNK         0.0828 
    110 H110       22.0719  -33.3034  -41.6574 H         1 UNK         0.2931 
    111 H111       22.0728  -33.7674  -44.4964 H         1 UNK         0.0412 
    112 H112       20.5725  -36.9696  -44.9013 H         1 UNK         0.3472 
    113 H113       21.2002  -35.5359  -45.6738 H         1 UNK         0.3472 
    114 H114       20.7404  -31.9587  -43.2428 H         1 UNK         0.0970 
    115 H115       19.6602  -33.2174  -42.7019 H         1 UNK         0.0970 
    116 H116       17.1359  -33.2171  -45.4286 H         1 UNK         0.0612 
    117 H117       17.6023  -33.6335  -43.8039 H         1 UNK         0.0612 
@<TRIPOS>BOND
     1    1    2 1    
     2    1   62 1    
     3    1   63 1    
     4    1   64 1    
     5    2    3 2    
     6    2    4 am   BACKBONE|DICT|INTERRES
     7    4    5 1    
     8    4   65 1    
     9    5    6 1    
    10    5   25 1    
    11    5   66 1    
    12    6    7 1    
    13    6   67 1    
    14    6   68 1    
    15    7    8 1    
    16    8    9 1    
    17    8   69 1    
    18    8   70 1    
    19    9   10 ar   
    20    9   14 ar   
    21   10   11 ar   
    22   10   71 1    
    23   11   12 ar   
    24   11   61 1    
    25   12   13 ar   
    26   12   72 1    
    27   13   14 ar   
    28   13   15 1    
    29   14   73 1    
    30   15   16 1    
    31   15   74 1    
    32   15   75 1    
    33   16   17 1    
    34   17   18 1    
    35   17   76 1    
    36   17   77 1    
    37   18   19 1    
    38   18   27 1    
    39   18   78 1    
    40   19   20 am   BACKBONE|DICT|INTERRES
    41   19   79 1    
    42   20   21 2    
    43   20   22 1    
    44   22   23 1    
    45   22   24 1    
    46   22   80 1    
    47   23   81 1    
    48   23   82 1    
    49   23   83 1    
    50   24   25 am   BACKBONE|DICT|INTERRES
    51   24   84 1    
    52   25   26 2    
    53   27   28 2    
    54   27   29 am   BACKBONE|DICT|INTERRES
    55   29   30 1    
    56   29   85 1    
    57   30   31 1    
    58   30   32 1    
    59   30   86 1    
    60   31   87 1    
    61   31   88 1    
    62   31   89 1    
    63   32   33 2    
    64   32   34 am   BACKBONE|DICT|INTERRES
    65   34   35 1    
    66   34   90 1    
    67   35   36 1    
    68   35   37 1    
    69   35   91 1    
    70   36   92 1    
    71   36   93 1    
    72   36   94 1    
    73   37   38 2    
    74   37   39 am   BACKBONE|DICT|INTERRES
    75   39   40 1    
    76   39   95 1    
    77   40   41 1    
    78   40   42 1    
    79   40   96 1    
    80   41   97 1    
    81   41   98 1    
    82   41   99 1    
    83   42   43 2    
    84   42   44 am   BACKBONE|DICT|INTERRES
    85   44   45 1    
    86   44  100 1    
    87   45   46 1    
    88   45   47 1    
    89   45  101 1    
    90   46  102 1    
    91   46  103 1    
    92   46  104 1    
    93   47   48 2    
    94   47   49 am   BACKBONE|DICT|INTERRES
    95   49   50 1    
    96   49  105 1    
    97   50   51 1    
    98   50   52 1    
    99   50  106 1    
   100   51  107 1    
   101   51  108 1    
   102   51  109 1    
   103   52   53 2    
   104   52   54 am   BACKBONE|DICT|INTERRES
   105   54   55 1    
   106   54  110 1    
   107   55   56 1    
   108   55   59 1    
   109   55  111 1    
   110   56   57 am   BACKBONE|DICT|INTERRES
   111   56   58 2    
   112   57  112 1    
   113   57  113 1    
   114   59   60 1    
   115   59  114 1    
   116   59  115 1    
   117   60   61 1    
   118   61  116 1    
   119   61  117 1    
@<TRIPOS>SUBSTRUCTURE
     1 UNK         1 GROUP             0       ****    0 ROOT    
