@<TRIPOS>MOLECULE
3R8
117   119    1
SMALL
USER_CHARGES


@<TRIPOS>ATOM
      1 CA         17.3562  -30.4981  -41.3346 C.3       0 UNK        -0.2013 
      2 C          16.5822  -29.2674  -41.7794 C.2       0 UNK         0.4866 
      3 O          15.3513  -29.2755  -41.7524 O.2       0 UNK        -0.5176 
      4 N          17.2931  -28.2085  -42.1767 N.am      1 UNK        -0.4884 
      5 CA         16.7411  -26.9116  -42.5704 C.3       1 UNK         0.0853 
      6 C6         16.0015  -26.9374  -43.9429 C.3       10 UNK        -0.0849 
      7 S7         17.0705  -27.2670  -45.3890 S.3       10 UNK        -0.2776 
      8 C8         16.7247  -29.0177  -45.7926 C.3       10 UNK         0.0316 
      9 C9         18.0173  -29.8166  -45.9037 C.ar      10 UNK        -0.0863 
     10 C10        18.2321  -30.9439  -45.1050 C.ar      10 UNK        -0.1009 
     11 C11        19.4617  -31.6103  -45.1376 C.ar      10 UNK        -0.0712 
     12 C12        20.4852  -31.1355  -45.9646 C.ar      10 UNK        -0.0894 
     13 C13        20.2845  -30.0030  -46.7568 C.ar      10 UNK        -0.0745 
     14 C14        19.0298  -29.3880  -46.7666 C.ar      10 UNK        -0.0972 
     15 C15        21.4435  -29.3678  -47.5174 C.3       10 UNK         0.0209 
     16 S16        22.4434  -28.2579  -46.4517 S.3       10 UNK        -0.2568 
     17 C17        21.1426  -27.3661  -45.5285 C.3       10 UNK        -0.0983 
     18 CA         21.5704  -26.0925  -44.7644 C.3       3 UNK         0.0876 
     19 N          20.3608  -25.4129  -44.2970 N.am      3 UNK        -0.4424 
     20 C          20.2430  -24.1668  -43.8248 C.2       2 UNK         0.4918 
     21 O          21.1764  -23.3636  -43.7882 O.2       2 UNK        -0.4875 
     22 CA         18.8493  -23.7339  -43.3165 C.3       2 UNK         0.0481 
     23 CB         18.2973  -22.5857  -44.1776 C.3       2 UNK        -0.1831 
     24 N          17.8505  -24.8131  -43.2722 N.am      2 UNK        -0.4498 
     25 C          17.8499  -25.8461  -42.4158 C.2       1 UNK         0.5027 
     26 O          18.7015  -25.9868  -41.5349 O.2       1 UNK        -0.4969 
     27 C          22.5334  -26.3714  -43.5866 C.2       3 UNK         0.5005 
     28 O          22.6829  -27.5159  -43.1539 O.2       3 UNK        -0.5279 
     29 N          23.1728  -25.3101  -43.0754 N.am      4 UNK        -0.4463 
     30 CA         24.0869  -25.3201  -41.9255 C.3       4 UNK         0.0283 
     31 CB         24.4953  -23.8751  -41.5981 C.3       4 UNK        -0.1875 
     32 C          25.3357  -26.2059  -42.0962 C.2       4 UNK         0.4949 
     33 O          25.9413  -26.5866  -41.0951 O.2       4 UNK        -0.5039 
     34 N          25.6881  -26.5355  -43.3466 N.am      5 UNK        -0.4663 
     35 CA         26.7288  -27.5065  -43.6904 C.3       5 UNK         0.0242 
     36 CB         27.0331  -27.4078  -45.1940 C.3       5 UNK        -0.1982 
     37 C          26.3524  -28.9517  -43.3119 C.2       5 UNK         0.5017 
     38 O          27.2482  -29.7395  -43.0056 O.2       5 UNK        -0.5012 
     39 N          25.0504  -29.2696  -43.3381 N.am      6 UNK        -0.4439 
     40 CA         24.4968  -30.5621  -42.9323 C.3       6 UNK         0.0297 
     41 CB         23.4133  -30.9763  -43.9357 C.3       6 UNK        -0.2006 
     42 C          23.9389  -30.5031  -41.4992 C.2       6 UNK         0.4892 
     43 O          24.0756  -31.4827  -40.7654 O.2       6 UNK        -0.5089 
     44 N          23.3729  -29.3471  -41.1176 N.am      7 UNK        -0.4243 
     45 CA         22.8794  -28.9853  -39.7863 C.3       7 UNK         0.0196 
     46 CB         24.0470  -28.8908  -38.7766 C.3       7 UNK        -0.2007 
     47 C          21.7127  -29.8812  -39.3306 C.2       7 UNK         0.5020 
     48 O          20.6788  -29.9041  -39.9980 O.2       7 UNK        -0.5147 
     49 N          21.8682  -30.5828  -38.1998 N.am      8 UNK        -0.4734 
     50 CA         20.8484  -31.4224  -37.5585 C.3       8 UNK         0.0238 
     51 CB         21.1843  -31.5480  -36.0601 C.3       8 UNK        -0.1912 
     52 C          20.6644  -32.7953  -38.2416 C.2       8 UNK         0.5038 
     53 O          20.6419  -33.8245  -37.5637 O.2       8 UNK        -0.5046 
     54 N          20.5361  -32.7864  -39.5709 N.am      9 UNK        -0.4200 
     55 CA         20.2939  -33.9558  -40.4291 C.3       9 UNK         0.0839 
     56 C          18.8097  -34.4222  -40.4951 C.2       9 UNK         0.5513 
     57 N          17.8652  -33.7413  -39.8568 N.am      9 UNK        -0.7519 
     58 O          18.5123  -35.4343  -41.1245 O.2       9 UNK        -0.4960 
     59 C59        20.9150  -33.7513  -41.8356 C.3       10 UNK        -0.0876 
     60 S60        20.3788  -32.2034  -42.6387 S.3       10 UNK        -0.2414 
     61 C61        19.7164  -32.7936  -44.2204 C.3       10 UNK         0.0169 
     62 H62        17.1267  -30.7307  -40.2955 H         1 UNK         0.0903 
     63 H63        17.0884  -31.3598  -41.9451 H         1 UNK         0.0903 
     64 H64        18.4317  -30.3464  -41.4163 H         1 UNK         0.0903 
     65 H65        18.3037  -28.2287  -42.1201 H         1 UNK         0.3096 
     66 H66        15.9997  -26.6430  -41.8143 H         1 UNK         0.1121 
     67 H67        15.1934  -27.6690  -43.9162 H         1 UNK         0.0849 
     68 H68        15.4949  -25.9857  -44.1107 H         1 UNK         0.0849 
     69 H69        16.1860  -29.0684  -46.7396 H         1 UNK         0.0865 
     70 H70        16.0699  -29.4580  -45.0396 H         1 UNK         0.0865 
     71 H71        17.4585  -31.2842  -44.4308 H         1 UNK         0.1346 
     72 H72        21.4546  -31.6136  -45.9491 H         1 UNK         0.1412 
     73 H73        18.8711  -28.5070  -47.3735 H         1 UNK         0.1426 
     74 H74        21.0672  -28.7977  -48.3681 H         1 UNK         0.0716 
     75 H75        22.0894  -30.1439  -47.9305 H         1 UNK         0.0716 
     76 H76        20.6615  -28.0672  -44.8428 H         1 UNK         0.0695 
     77 H77        20.3845  -27.0813  -46.2589 H         1 UNK         0.0695 
     78 H78        22.0835  -25.4310  -45.4657 H         1 UNK         0.0983 
     79 H79        19.5289  -25.9836  -44.2800 H         1 UNK         0.3095 
     80 H80        18.9842  -23.3595  -42.2998 H         1 UNK         0.0454 
     81 H81        18.1355  -22.8972  -45.2103 H         1 UNK         0.0851 
     82 H82        18.9887  -21.7420  -44.1972 H         1 UNK         0.0851 
     83 H83        17.3508  -22.2136  -43.7854 H         1 UNK         0.0851 
     84 H84        17.1383  -24.7902  -43.9888 H         1 UNK         0.2976 
     85 H85        22.9151  -24.3989  -43.4406 H         1 UNK         0.3116 
     86 H86        23.5300  -25.7181  -41.0746 H         1 UNK         0.0646 
     87 H87        25.0356  -23.4118  -42.4245 H         1 UNK         0.0847 
     88 H88        25.1463  -23.8409  -40.7233 H         1 UNK         0.0847 
     89 H89        23.6255  -23.2565  -41.3757 H         1 UNK         0.0847 
     90 H90        25.1453  -26.1558  -44.1083 H         1 UNK         0.3040 
     91 H91        27.6337  -27.2467  -43.1361 H         1 UNK         0.1015 
     92 H92        27.3717  -26.4080  -45.4663 H         1 UNK         0.0786 
     93 H93        26.1575  -27.6445  -45.8003 H         1 UNK         0.0786 
     94 H94        27.8236  -28.1042  -45.4779 H         1 UNK         0.0786 
     95 H95        24.3746  -28.5441  -43.5554 H         1 UNK         0.3172 
     96 H96        25.2780  -31.3247  -42.9563 H         1 UNK         0.0595 
     97 H97        22.5484  -30.3118  -43.8952 H         1 UNK         0.0839 
     98 H98        23.0660  -31.9885  -43.7297 H         1 UNK         0.0839 
     99 H99        23.7926  -30.9678  -44.9575 H         1 UNK         0.0839 
    100 H100       23.2051  -28.6482  -41.8394 H         1 UNK         0.2998 
    101 H101       22.4585  -27.9840  -39.8895 H         1 UNK         0.0822 
    102 H102       24.8036  -28.1872  -39.1243 H         1 UNK         0.0787 
    103 H103       23.7035  -28.5303  -37.8061 H         1 UNK         0.0787 
    104 H104       24.5417  -29.8503  -38.6224 H         1 UNK         0.0787 
    105 H105       22.7677  -30.5424  -37.7424 H         1 UNK         0.3055 
    106 H106       19.8868  -30.9097  -37.6363 H         1 UNK         0.1106 
    107 H107       20.4110  -32.1052  -35.5293 H         1 UNK         0.0828 
    108 H108       21.2550  -30.5695  -35.5847 H         1 UNK         0.0828 
    109 H109       22.1292  -32.0689  -35.9007 H         1 UNK         0.0828 
    110 H110       20.5563  -31.8881  -40.0445 H         1 UNK         0.2931 
    111 H111       20.8279  -34.7960  -39.9812 H         1 UNK         0.0412 
    112 H112       18.1001  -32.9192  -39.3263 H         1 UNK         0.3472 
    113 H113       16.9108  -34.0618  -39.9007 H         1 UNK         0.3472 
    114 H114       22.0015  -33.7082  -41.7439 H         1 UNK         0.0970 
    115 H115       20.7120  -34.6068  -42.4823 H         1 UNK         0.0970 
    116 H116       20.4256  -33.4810  -44.6841 H         1 UNK         0.0612 
    117 H117       18.7964  -33.3540  -44.0463 H         1 UNK         0.0612 
@<TRIPOS>BOND
     1    1    2 1    
     2    1   62 1    
     3    1   63 1    
     4    1   64 1    
     5    2    3 2    
     6    2    4 am   BACKBONE|DICT|INTERRES
     7    4    5 1    
     8    4   65 1    
     9    5    6 1    
    10    5   25 1    
    11    5   66 1    
    12    6    7 1    
    13    6   67 1    
    14    6   68 1    
    15    7    8 1    
    16    8    9 1    
    17    8   69 1    
    18    8   70 1    
    19    9   10 ar   
    20    9   14 ar   
    21   10   11 ar   
    22   10   71 1    
    23   11   12 ar   
    24   11   61 1    
    25   12   13 ar   
    26   12   72 1    
    27   13   14 ar   
    28   13   15 1    
    29   14   73 1    
    30   15   16 1    
    31   15   74 1    
    32   15   75 1    
    33   16   17 1    
    34   17   18 1    
    35   17   76 1    
    36   17   77 1    
    37   18   19 1    
    38   18   27 1    
    39   18   78 1    
    40   19   20 am   BACKBONE|DICT|INTERRES
    41   19   79 1    
    42   20   21 2    
    43   20   22 1    
    44   22   23 1    
    45   22   24 1    
    46   22   80 1    
    47   23   81 1    
    48   23   82 1    
    49   23   83 1    
    50   24   25 am   BACKBONE|DICT|INTERRES
    51   24   84 1    
    52   25   26 2    
    53   27   28 2    
    54   27   29 am   BACKBONE|DICT|INTERRES
    55   29   30 1    
    56   29   85 1    
    57   30   31 1    
    58   30   32 1    
    59   30   86 1    
    60   31   87 1    
    61   31   88 1    
    62   31   89 1    
    63   32   33 2    
    64   32   34 am   BACKBONE|DICT|INTERRES
    65   34   35 1    
    66   34   90 1    
    67   35   36 1    
    68   35   37 1    
    69   35   91 1    
    70   36   92 1    
    71   36   93 1    
    72   36   94 1    
    73   37   38 2    
    74   37   39 am   BACKBONE|DICT|INTERRES
    75   39   40 1    
    76   39   95 1    
    77   40   41 1    
    78   40   42 1    
    79   40   96 1    
    80   41   97 1    
    81   41   98 1    
    82   41   99 1    
    83   42   43 2    
    84   42   44 am   BACKBONE|DICT|INTERRES
    85   44   45 1    
    86   44  100 1    
    87   45   46 1    
    88   45   47 1    
    89   45  101 1    
    90   46  102 1    
    91   46  103 1    
    92   46  104 1    
    93   47   48 2    
    94   47   49 am   BACKBONE|DICT|INTERRES
    95   49   50 1    
    96   49  105 1    
    97   50   51 1    
    98   50   52 1    
    99   50  106 1    
   100   51  107 1    
   101   51  108 1    
   102   51  109 1    
   103   52   53 2    
   104   52   54 am   BACKBONE|DICT|INTERRES
   105   54   55 1    
   106   54  110 1    
   107   55   56 1    
   108   55   59 1    
   109   55  111 1    
   110   56   57 am   BACKBONE|DICT|INTERRES
   111   56   58 2    
   112   57  112 1    
   113   57  113 1    
   114   59   60 1    
   115   59  114 1    
   116   59  115 1    
   117   60   61 1    
   118   61  116 1    
   119   61  117 1    
@<TRIPOS>SUBSTRUCTURE
     1 UNK         1 GROUP             0       ****    0 ROOT    
