@<TRIPOS>MOLECULE
3R8
117   119    1
SMALL
USER_CHARGES


@<TRIPOS>ATOM
      1 CA         14.7052  -25.4359  -43.3232 C.3       0 UNK        -0.2013 
      2 C          15.5726  -25.3209  -44.5667 C.2       0 UNK         0.4866 
      3 O          15.9324  -24.2109  -44.9591 O.2       0 UNK        -0.5176 
      4 N          15.8816  -26.4554  -45.2094 N.am      1 UNK        -0.4884 
      5 CA         16.5422  -26.5046  -46.5181 C.3       1 UNK         0.0853 
      6 C6         16.2389  -27.8330  -47.2678 C.3       10 UNK        -0.0849 
      7 S7         17.3373  -29.2615  -46.9513 S.3       10 UNK        -0.2776 
      8 C8         16.6952  -29.9623  -45.3950 C.3       10 UNK         0.0316 
      9 C9         17.6452  -29.7074  -44.2304 C.ar      10 UNK        -0.0863 
     10 C10        18.9544  -30.1961  -44.2834 C.ar      10 UNK        -0.1009 
     11 C11        19.8391  -29.9860  -43.2235 C.ar      10 UNK        -0.0712 
     12 C12        19.4025  -29.2895  -42.0932 C.ar      10 UNK        -0.0894 
     13 C13        18.0944  -28.8012  -42.0194 C.ar      10 UNK        -0.0745 
     14 C14        17.2192  -29.0174  -43.0906 C.ar      10 UNK        -0.0972 
     15 C15        17.6107  -28.0723  -40.7716 C.3       10 UNK         0.0209 
     16 S16        17.1784  -26.3377  -41.1201 S.3       10 UNK        -0.2568 
     17 C17        18.6712  -25.4084  -40.6379 C.3       10 UNK        -0.0983 
     18 CA         19.9484  -25.7773  -41.4278 C.3       3 UNK         0.0876 
     19 N          19.7464  -25.7728  -42.8857 N.am      3 UNK        -0.4424 
     20 C          20.6111  -26.2914  -43.7701 C.2       2 UNK         0.4918 
     21 O          21.7165  -26.7283  -43.4481 O.2       2 UNK        -0.4875 
     22 CA         20.1878  -26.3102  -45.2469 C.3       2 UNK         0.0481 
     23 CB         20.9556  -27.3708  -46.0641 C.3       2 UNK        -0.1831 
     24 N          18.7428  -26.5022  -45.3977 N.am      2 UNK        -0.4498 
     25 C          18.0396  -26.1269  -46.4763 C.2       1 UNK         0.5027 
     26 O          18.5234  -25.5031  -47.4230 O.2       1 UNK        -0.4969 
     27 C          21.1466  -24.9262  -40.9532 C.2       3 UNK         0.5005 
     28 O          21.6546  -25.1617  -39.8563 O.2       3 UNK        -0.5279 
     29 N          21.6162  -23.9931  -41.7946 N.am      4 UNK        -0.4463 
     30 CA         22.8581  -23.2372  -41.6011 C.3       4 UNK         0.0283 
     31 CB         22.9397  -22.1253  -42.6595 C.3       4 UNK        -0.1875 
     32 C          24.1288  -24.1123  -41.6433 C.2       4 UNK         0.4949 
     33 O          25.1639  -23.6854  -41.1317 O.2       4 UNK        -0.5039 
     34 N          24.0318  -25.3102  -42.2352 N.am      5 UNK        -0.4663 
     35 CA         25.0912  -26.3130  -42.3151 C.3       5 UNK         0.0242 
     36 CB         25.6115  -26.3753  -43.7640 C.3       5 UNK        -0.1982 
     37 C          24.5656  -27.6686  -41.8098 C.2       5 UNK         0.5017 
     38 O          24.8609  -28.7015  -42.4138 O.2       5 UNK        -0.5012 
     39 N          23.7795  -27.6418  -40.7212 N.am      6 UNK        -0.4439 
     40 CA         23.2033  -28.8239  -40.0757 C.3       6 UNK         0.0297 
     41 CB         22.2537  -28.3942  -38.9459 C.3       6 UNK        -0.2006 
     42 C          24.2795  -29.7833  -39.5380 C.2       6 UNK         0.4892 
     43 O          25.2159  -29.3386  -38.8697 O.2       6 UNK        -0.5089 
     44 N          24.1042  -31.0755  -39.8256 N.am      7 UNK        -0.4243 
     45 CA         24.9725  -32.1808  -39.4298 C.3       7 UNK         0.0196 
     46 CB         26.2881  -32.1560  -40.2430 C.3       7 UNK        -0.2007 
     47 C          24.1631  -33.4787  -39.5837 C.2       7 UNK         0.5020 
     48 O          22.9854  -33.5019  -39.2188 O.2       7 UNK        -0.5147 
     49 N          24.7704  -34.5293  -40.1499 N.am      8 UNK        -0.4734 
     50 CA         24.1153  -35.7916  -40.5081 C.3       8 UNK         0.0238 
     51 CB         25.1813  -36.9005  -40.5923 C.3       8 UNK        -0.1912 
     52 C          23.3117  -35.6401  -41.8159 C.2       8 UNK         0.5038 
     53 O          23.6806  -36.2175  -42.8404 O.2       8 UNK        -0.5046 
     54 N          22.2535  -34.8237  -41.7603 N.am      9 UNK        -0.4200 
     55 CA         21.3980  -34.4455  -42.8980 C.3       9 UNK         0.0839 
     56 C          20.4745  -35.5783  -43.4336 C.2       9 UNK         0.5513 
     57 N          20.3033  -36.6903  -42.7285 N.am      9 UNK        -0.7519 
     58 O          19.9050  -35.4446  -44.5136 O.2       9 UNK        -0.4960 
     59 C59        20.5742  -33.1666  -42.5900 C.3       10 UNK        -0.0876 
     60 S60        21.6158  -31.7675  -42.0477 S.3       10 UNK        -0.2414 
     61 C61        21.2694  -30.5001  -43.3071 C.3       10 UNK         0.0169 
     62 H62        14.6843  -26.4531  -42.9330 H         1 UNK         0.0903 
     63 H63        15.0789  -24.7780  -42.5393 H         1 UNK         0.0903 
     64 H64        13.6829  -25.1377  -43.5532 H         1 UNK         0.0903 
     65 H65        15.5576  -27.3378  -44.8442 H         1 UNK         0.3096 
     66 H66        16.0714  -25.7179  -47.1138 H         1 UNK         0.1121 
     67 H67        16.3092  -27.6400  -48.3398 H         1 UNK         0.0849 
     68 H68        15.2019  -28.1348  -47.1117 H         1 UNK         0.0849 
     69 H69        15.6962  -29.5781  -45.1865 H         1 UNK         0.0865 
     70 H70        16.5825  -31.0401  -45.5203 H         1 UNK         0.0865 
     71 H71        19.2854  -30.7362  -45.1601 H         1 UNK         0.1346 
     72 H72        20.0850  -29.1410  -41.2686 H         1 UNK         0.1412 
     73 H73        16.2029  -28.6550  -43.0232 H         1 UNK         0.1426 
     74 H74        18.3500  -28.1180  -39.9704 H         1 UNK         0.0716 
     75 H75        16.7229  -28.5812  -40.3941 H         1 UNK         0.0716 
     76 H76        18.8282  -25.5602  -39.5680 H         1 UNK         0.0695 
     77 H77        18.4456  -24.3475  -40.7621 H         1 UNK         0.0695 
     78 H78        20.2112  -26.7997  -41.1590 H         1 UNK         0.0983 
     79 H79        18.8628  -25.4103  -43.2132 H         1 UNK         0.3095 
     80 H80        20.4499  -25.3254  -45.6384 H         1 UNK         0.0454 
     81 H81        20.7471  -28.3783  -45.7046 H         1 UNK         0.0851 
     82 H82        22.0334  -27.2171  -45.9997 H         1 UNK         0.0851 
     83 H83        20.6917  -27.3331  -47.1208 H         1 UNK         0.0851 
     84 H84        18.2787  -27.0422  -44.6789 H         1 UNK         0.2976 
     85 H85        21.1326  -23.8585  -42.6707 H         1 UNK         0.3116 
     86 H86        22.8164  -22.7702  -40.6148 H         1 UNK         0.0646 
     87 H87        22.9737  -22.5315  -43.6712 H         1 UNK         0.0847 
     88 H88        23.8380  -21.5215  -42.5220 H         1 UNK         0.0847 
     89 H89        22.0864  -21.4499  -42.5949 H         1 UNK         0.0847 
     90 H90        23.1361  -25.6059  -42.6142 H         1 UNK         0.3040 
     91 H91        25.9239  -26.0435  -41.6617 H         1 UNK         0.1015 
     92 H92        24.8283  -26.6872  -44.4564 H         1 UNK         0.0786 
     93 H93        26.4348  -27.0848  -43.8566 H         1 UNK         0.0786 
     94 H94        25.9834  -25.4048  -44.0930 H         1 UNK         0.0786 
     95 H95        23.5843  -26.7480  -40.2909 H         1 UNK         0.3172 
     96 H96        22.6134  -29.3425  -40.8308 H         1 UNK         0.0595 
     97 H97        22.7683  -27.7963  -38.1926 H         1 UNK         0.0839 
     98 H98        21.8309  -29.2632  -38.4396 H         1 UNK         0.0839 
     99 H99        21.4177  -27.8089  -39.3251 H         1 UNK         0.0839 
    100 H100       23.2743  -31.3558  -40.3360 H         1 UNK         0.2998 
    101 H101       25.2087  -32.0752  -38.3691 H         1 UNK         0.0822 
    102 H102       26.9734  -32.9406  -39.9201 H         1 UNK         0.0787 
    103 H103       26.1053  -32.2832  -41.3111 H         1 UNK         0.0787 
    104 H104       26.8172  -31.2118  -40.1138 H         1 UNK         0.0787 
    105 H105       25.7270  -34.4179  -40.4547 H         1 UNK         0.3055 
    106 H106       23.4104  -36.0672  -39.7200 H         1 UNK         0.1106 
    107 H107       24.7270  -37.8595  -40.8450 H         1 UNK         0.0828 
    108 H108       25.9330  -36.6856  -41.3529 H         1 UNK         0.0828 
    109 H109       25.6956  -37.0292  -39.6397 H         1 UNK         0.0828 
    110 H110       22.0684  -34.3492  -40.8839 H         1 UNK         0.2931 
    111 H111       22.0700  -34.2003  -43.7230 H         1 UNK         0.0412 
    112 H112       20.7665  -36.8095  -41.8420 H         1 UNK         0.3472 
    113 H113       19.7054  -37.4176  -43.0888 H         1 UNK         0.3472 
    114 H114       19.8417  -33.3647  -41.8056 H         1 UNK         0.0970 
    115 H115       19.9989  -32.8670  -43.4677 H         1 UNK         0.0970 
    116 H116       21.4852  -30.9094  -44.2952 H         1 UNK         0.0612 
    117 H117       21.9548  -29.6626  -43.1674 H         1 UNK         0.0612 
@<TRIPOS>BOND
     1    1    2 1    
     2    1   62 1    
     3    1   63 1    
     4    1   64 1    
     5    2    3 2    
     6    2    4 am   BACKBONE|DICT|INTERRES
     7    4    5 1    
     8    4   65 1    
     9    5    6 1    
    10    5   25 1    
    11    5   66 1    
    12    6    7 1    
    13    6   67 1    
    14    6   68 1    
    15    7    8 1    
    16    8    9 1    
    17    8   69 1    
    18    8   70 1    
    19    9   10 ar   
    20    9   14 ar   
    21   10   11 ar   
    22   10   71 1    
    23   11   12 ar   
    24   11   61 1    
    25   12   13 ar   
    26   12   72 1    
    27   13   14 ar   
    28   13   15 1    
    29   14   73 1    
    30   15   16 1    
    31   15   74 1    
    32   15   75 1    
    33   16   17 1    
    34   17   18 1    
    35   17   76 1    
    36   17   77 1    
    37   18   19 1    
    38   18   27 1    
    39   18   78 1    
    40   19   20 am   BACKBONE|DICT|INTERRES
    41   19   79 1    
    42   20   21 2    
    43   20   22 1    
    44   22   23 1    
    45   22   24 1    
    46   22   80 1    
    47   23   81 1    
    48   23   82 1    
    49   23   83 1    
    50   24   25 am   BACKBONE|DICT|INTERRES
    51   24   84 1    
    52   25   26 2    
    53   27   28 2    
    54   27   29 am   BACKBONE|DICT|INTERRES
    55   29   30 1    
    56   29   85 1    
    57   30   31 1    
    58   30   32 1    
    59   30   86 1    
    60   31   87 1    
    61   31   88 1    
    62   31   89 1    
    63   32   33 2    
    64   32   34 am   BACKBONE|DICT|INTERRES
    65   34   35 1    
    66   34   90 1    
    67   35   36 1    
    68   35   37 1    
    69   35   91 1    
    70   36   92 1    
    71   36   93 1    
    72   36   94 1    
    73   37   38 2    
    74   37   39 am   BACKBONE|DICT|INTERRES
    75   39   40 1    
    76   39   95 1    
    77   40   41 1    
    78   40   42 1    
    79   40   96 1    
    80   41   97 1    
    81   41   98 1    
    82   41   99 1    
    83   42   43 2    
    84   42   44 am   BACKBONE|DICT|INTERRES
    85   44   45 1    
    86   44  100 1    
    87   45   46 1    
    88   45   47 1    
    89   45  101 1    
    90   46  102 1    
    91   46  103 1    
    92   46  104 1    
    93   47   48 2    
    94   47   49 am   BACKBONE|DICT|INTERRES
    95   49   50 1    
    96   49  105 1    
    97   50   51 1    
    98   50   52 1    
    99   50  106 1    
   100   51  107 1    
   101   51  108 1    
   102   51  109 1    
   103   52   53 2    
   104   52   54 am   BACKBONE|DICT|INTERRES
   105   54   55 1    
   106   54  110 1    
   107   55   56 1    
   108   55   59 1    
   109   55  111 1    
   110   56   57 am   BACKBONE|DICT|INTERRES
   111   56   58 2    
   112   57  112 1    
   113   57  113 1    
   114   59   60 1    
   115   59  114 1    
   116   59  115 1    
   117   60   61 1    
   118   61  116 1    
   119   61  117 1    
@<TRIPOS>SUBSTRUCTURE
     1 UNK         1 GROUP             0       ****    0 ROOT    
