@<TRIPOS>MOLECULE
3R8
117   119    1
SMALL
USER_CHARGES


@<TRIPOS>ATOM
      1 CA         12.5235  -25.4857  -43.5235 C.3       0 UNK        -0.2013 
      2 C          13.8041  -25.2793  -44.3182 C.2       0 UNK         0.4866 
      3 O          14.4238  -24.2204  -44.2185 O.2       0 UNK        -0.5176 
      4 N          14.2077  -26.2839  -45.1063 N.am      1 UNK        -0.4884 
      5 CA         15.4255  -26.2686  -45.9292 C.3       1 UNK         0.0853 
      6 C6         15.3484  -27.3030  -47.0819 C.3       10 UNK        -0.0849 
      7 S7         15.0928  -29.0271  -46.5218 S.3       10 UNK        -0.2776 
      8 C8         16.4755  -29.9066  -47.3214 C.3       10 UNK         0.0316 
      9 C9         17.7912  -29.7832  -46.5602 C.ar      10 UNK        -0.0863 
     10 C10        17.9733  -30.4801  -45.3613 C.ar      10 UNK        -0.1009 
     11 C11        19.2045  -30.4513  -44.6973 C.ar      10 UNK        -0.0712 
     12 C12        20.2639  -29.7287  -45.2541 C.ar      10 UNK        -0.0894 
     13 C13        20.0904  -29.0043  -46.4361 C.ar      10 UNK        -0.0745 
     14 C14        18.8500  -29.0329  -47.0836 C.ar      10 UNK        -0.0972 
     15 C15        21.2548  -28.2280  -47.0369 C.3       10 UNK         0.0209 
     16 S16        21.3250  -26.5058  -46.4451 S.3       10 UNK        -0.2568 
     17 C17        22.1136  -26.6755  -44.8064 C.3       10 UNK        -0.0983 
     18 CA         21.2133  -26.1765  -43.6482 C.3       3 UNK         0.0876 
     19 N          19.9379  -26.8941  -43.5941 N.am      3 UNK        -0.4424 
     20 C          18.8716  -26.5262  -42.8743 C.2       2 UNK         0.4918 
     21 O          18.8238  -25.5216  -42.1620 O.2       2 UNK        -0.4875 
     22 CA         17.6476  -27.4516  -42.9812 C.3       2 UNK         0.0481 
     23 CB         17.0378  -27.7290  -41.5966 C.3       2 UNK        -0.1831 
     24 N          16.5946  -26.9826  -43.8860 N.am      2 UNK        -0.4498 
     25 C          16.7226  -26.4504  -45.1136 C.2       1 UNK         0.5027 
     26 O          17.7890  -26.1321  -45.6376 O.2       1 UNK        -0.4969 
     27 C          21.9800  -26.2449  -42.3114 C.2       3 UNK         0.5005 
     28 O          22.6770  -25.2876  -41.9695 O.2       3 UNK        -0.5279 
     29 N          21.8315  -27.3694  -41.5911 N.am      4 UNK        -0.4463 
     30 CA         22.5084  -27.7248  -40.3397 C.3       4 UNK         0.0283 
     31 CB         22.0353  -26.8118  -39.1870 C.3       4 UNK        -0.1875 
     32 C          24.0410  -27.7835  -40.5072 C.2       4 UNK         0.4949 
     33 O          24.5187  -28.0833  -41.6043 O.2       4 UNK        -0.5039 
     34 N          24.7864  -27.5365  -39.4191 N.am      5 UNK        -0.4663 
     35 CA         26.2533  -27.5294  -39.3411 C.3       5 UNK         0.0242 
     36 CB         26.8175  -26.2747  -40.0474 C.3       5 UNK        -0.1982 
     37 C          26.8529  -28.8587  -39.8397 C.2       5 UNK         0.5017 
     38 O          26.6166  -29.8895  -39.2092 O.2       5 UNK        -0.5012 
     39 N          27.5673  -28.8246  -40.9729 N.am      6 UNK        -0.4439 
     40 CA         28.1537  -29.9890  -41.6417 C.3       6 UNK         0.0297 
     41 CB         29.0743  -29.5097  -42.7756 C.3       6 UNK        -0.2006 
     42 C          27.1197  -30.9970  -42.1802 C.2       6 UNK         0.4892 
     43 O          27.4493  -32.1786  -42.2898 O.2       6 UNK        -0.5089 
     44 N          25.8996  -30.5352  -42.4964 N.am      7 UNK        -0.4243 
     45 CA         24.7863  -31.3950  -42.9122 C.3       7 UNK         0.0196 
     46 CB         23.7946  -30.5818  -43.7607 C.3       7 UNK        -0.2007 
     47 C          24.0606  -32.0350  -41.7163 C.2       7 UNK         0.5020 
     48 O          23.3604  -33.0298  -41.9075 O.2       7 UNK        -0.5147 
     49 N          24.2266  -31.4519  -40.5184 N.am      8 UNK        -0.4734 
     50 CA         23.6400  -31.7998  -39.2162 C.3       8 UNK         0.0238 
     51 CB         24.0898  -33.1986  -38.7520 C.3       8 UNK        -0.1912 
     52 C          22.1099  -31.6498  -39.1422 C.2       8 UNK         0.5038 
     53 O          21.6194  -30.9606  -38.2479 O.2       8 UNK        -0.5046 
     54 N          21.3967  -32.2879  -40.0767 N.am      9 UNK        -0.4200 
     55 CA         19.9314  -32.3126  -40.2196 C.3       9 UNK         0.0839 
     56 C          19.1725  -33.0148  -39.0520 C.2       9 UNK         0.5513 
     57 N          19.8243  -33.8473  -38.2487 N.am      9 UNK        -0.7519 
     58 O          17.9689  -32.8322  -38.8875 O.2       9 UNK        -0.4960 
     59 C59        19.3287  -30.9244  -40.5815 C.3       10 UNK        -0.0876 
     60 S60        20.0743  -30.1697  -42.0659 S.3       10 UNK        -0.2414 
     61 C61        19.3866  -31.2159  -43.3914 C.3       10 UNK         0.0169 
     62 H62        11.7896  -24.7262  -43.7914 H         1 UNK         0.0903 
     63 H63        12.0811  -26.4644  -43.7088 H         1 UNK         0.0903 
     64 H64        12.7265  -25.4018  -42.4562 H         1 UNK         0.0903 
     65 H65        13.6637  -27.1349  -45.1595 H         1 UNK         0.3096 
     66 H66        15.4990  -25.2796  -46.3881 H         1 UNK         0.1121 
     67 H67        14.5209  -27.0442  -47.7442 H         1 UNK         0.0849 
     68 H68        16.2435  -27.2426  -47.7044 H         1 UNK         0.0849 
     69 H69        16.2137  -30.9635  -47.3912 H         1 UNK         0.0865 
     70 H70        16.5842  -29.5623  -48.3511 H         1 UNK         0.0865 
     71 H71        17.1537  -31.0563  -44.9536 H         1 UNK         0.1346 
     72 H72        21.2238  -29.7262  -44.7593 H         1 UNK         0.1412 
     73 H73        18.7186  -28.4883  -48.0086 H         1 UNK         0.1426 
     74 H74        21.1597  -28.2141  -48.1237 H         1 UNK         0.0716 
     75 H75        22.2004  -28.7309  -46.8278 H         1 UNK         0.0716 
     76 H76        22.4168  -27.7105  -44.6431 H         1 UNK         0.0695 
     77 H77        23.0397  -26.0980  -44.8356 H         1 UNK         0.0695 
     78 H78        20.9838  -25.1239  -43.8290 H         1 UNK         0.0983 
     79 H79        19.8452  -27.6821  -44.2208 H         1 UNK         0.3095 
     80 H80        17.9840  -28.4074  -43.3779 H         1 UNK         0.0454 
     81 H81        16.2740  -28.5050  -41.6457 H         1 UNK         0.0851 
     82 H82        17.8005  -28.0735  -40.8968 H         1 UNK         0.0851 
     83 H83        16.5839  -26.8341  -41.1692 H         1 UNK         0.0851 
     84 H84        15.6496  -27.1721  -43.5880 H         1 UNK         0.2976 
     85 H85        21.2421  -28.0947  -41.9787 H         1 UNK         0.3116 
     86 H86        22.1904  -28.7418  -40.1085 H         1 UNK         0.0646 
     87 H87        22.3458  -27.1995  -38.2163 H         1 UNK         0.0847 
     88 H88        20.9475  -26.7435  -39.1630 H         1 UNK         0.0847 
     89 H89        22.4273  -25.7985  -39.2832 H         1 UNK         0.0847 
     90 H90        24.3051  -27.3381  -38.5531 H         1 UNK         0.3040 
     91 H91        26.5146  -27.4598  -38.2837 H         1 UNK         0.1015 
     92 H92        26.4306  -25.3654  -39.5869 H         1 UNK         0.0786 
     93 H93        26.5540  -26.2380  -41.1052 H         1 UNK         0.0786 
     94 H94        27.9048  -26.2298  -39.9689 H         1 UNK         0.0786 
     95 H95        27.6747  -27.9329  -41.4347 H         1 UNK         0.3172 
     96 H96        28.7664  -30.5154  -40.9067 H         1 UNK         0.0595 
     97 H97        29.5518  -30.3548  -43.2739 H         1 UNK         0.0839 
     98 H98        29.8709  -28.8682  -42.3982 H         1 UNK         0.0839 
     99 H99        28.5241  -28.9533  -43.5356 H         1 UNK         0.0839 
    100 H100       25.6822  -29.5536  -42.3477 H         1 UNK         0.2998 
    101 H101       25.1751  -32.2045  -43.5340 H         1 UNK         0.0822 
    102 H102       24.2880  -30.1080  -44.6093 H         1 UNK         0.0787 
    103 H103       23.0122  -31.2290  -44.1592 H         1 UNK         0.0787 
    104 H104       23.3032  -29.8028  -43.1773 H         1 UNK         0.0787 
    105 H105       24.8570  -30.6606  -40.4891 H         1 UNK         0.3055 
    106 H106       24.0540  -31.0778  -38.5096 H         1 UNK         0.1106 
    107 H107       23.7296  -33.9885  -39.4115 H         1 UNK         0.0828 
    108 H108       25.1769  -33.2680  -38.7117 H         1 UNK         0.0828 
    109 H109       23.7151  -33.4156  -37.7508 H         1 UNK         0.0828 
    110 H110       21.9232  -32.7881  -40.7892 H         1 UNK         0.2931 
    111 H111       19.7518  -32.9647  -41.0746 H         1 UNK         0.0412 
    112 H112       20.8075  -34.0201  -38.3817 H         1 UNK         0.3472 
    113 H113       19.3255  -34.3065  -37.5026 H         1 UNK         0.3472 
    114 H114       18.2523  -30.9982  -40.7464 H         1 UNK         0.0970 
    115 H115       19.4530  -30.2307  -39.7486 H         1 UNK         0.0970 
    116 H116       20.0549  -32.0616  -43.5584 H         1 UNK         0.0612 
    117 H117       18.4325  -31.6317  -43.0645 H         1 UNK         0.0612 
@<TRIPOS>BOND
     1    1    2 1    
     2    1   62 1    
     3    1   63 1    
     4    1   64 1    
     5    2    3 2    
     6    2    4 am   BACKBONE|DICT|INTERRES
     7    4    5 1    
     8    4   65 1    
     9    5    6 1    
    10    5   25 1    
    11    5   66 1    
    12    6    7 1    
    13    6   67 1    
    14    6   68 1    
    15    7    8 1    
    16    8    9 1    
    17    8   69 1    
    18    8   70 1    
    19    9   10 ar   
    20    9   14 ar   
    21   10   11 ar   
    22   10   71 1    
    23   11   12 ar   
    24   11   61 1    
    25   12   13 ar   
    26   12   72 1    
    27   13   14 ar   
    28   13   15 1    
    29   14   73 1    
    30   15   16 1    
    31   15   74 1    
    32   15   75 1    
    33   16   17 1    
    34   17   18 1    
    35   17   76 1    
    36   17   77 1    
    37   18   19 1    
    38   18   27 1    
    39   18   78 1    
    40   19   20 am   BACKBONE|DICT|INTERRES
    41   19   79 1    
    42   20   21 2    
    43   20   22 1    
    44   22   23 1    
    45   22   24 1    
    46   22   80 1    
    47   23   81 1    
    48   23   82 1    
    49   23   83 1    
    50   24   25 am   BACKBONE|DICT|INTERRES
    51   24   84 1    
    52   25   26 2    
    53   27   28 2    
    54   27   29 am   BACKBONE|DICT|INTERRES
    55   29   30 1    
    56   29   85 1    
    57   30   31 1    
    58   30   32 1    
    59   30   86 1    
    60   31   87 1    
    61   31   88 1    
    62   31   89 1    
    63   32   33 2    
    64   32   34 am   BACKBONE|DICT|INTERRES
    65   34   35 1    
    66   34   90 1    
    67   35   36 1    
    68   35   37 1    
    69   35   91 1    
    70   36   92 1    
    71   36   93 1    
    72   36   94 1    
    73   37   38 2    
    74   37   39 am   BACKBONE|DICT|INTERRES
    75   39   40 1    
    76   39   95 1    
    77   40   41 1    
    78   40   42 1    
    79   40   96 1    
    80   41   97 1    
    81   41   98 1    
    82   41   99 1    
    83   42   43 2    
    84   42   44 am   BACKBONE|DICT|INTERRES
    85   44   45 1    
    86   44  100 1    
    87   45   46 1    
    88   45   47 1    
    89   45  101 1    
    90   46  102 1    
    91   46  103 1    
    92   46  104 1    
    93   47   48 2    
    94   47   49 am   BACKBONE|DICT|INTERRES
    95   49   50 1    
    96   49  105 1    
    97   50   51 1    
    98   50   52 1    
    99   50  106 1    
   100   51  107 1    
   101   51  108 1    
   102   51  109 1    
   103   52   53 2    
   104   52   54 am   BACKBONE|DICT|INTERRES
   105   54   55 1    
   106   54  110 1    
   107   55   56 1    
   108   55   59 1    
   109   55  111 1    
   110   56   57 am   BACKBONE|DICT|INTERRES
   111   56   58 2    
   112   57  112 1    
   113   57  113 1    
   114   59   60 1    
   115   59  114 1    
   116   59  115 1    
   117   60   61 1    
   118   61  116 1    
   119   61  117 1    
@<TRIPOS>SUBSTRUCTURE
     1 UNK         1 GROUP             0       ****    0 ROOT    
