@<TRIPOS>MOLECULE
3R8
117   119    1
SMALL
USER_CHARGES


@<TRIPOS>ATOM
      1 CA         11.3454  -24.9714  -43.5731 C.3       0 UNK        -0.2013 
      2 C          12.8472  -24.8411  -43.3676 C.2       0 UNK         0.4866 
      3 O          13.2837  -24.3829  -42.3108 O.2       0 UNK        -0.5176 
      4 N          13.6394  -25.2284  -44.3743 N.am      1 UNK        -0.4884 
      5 CA         15.1051  -25.2455  -44.3364 C.3       1 UNK         0.0853 
      6 C6         15.7384  -25.2914  -45.7588 C.3       10 UNK        -0.0849 
      7 S7         14.8830  -26.2935  -47.0318 S.3       10 UNK        -0.2776 
      8 C8         14.9728  -28.0112  -46.4117 C.3       10 UNK         0.0316 
      9 C9         16.3757  -28.5597  -46.1467 C.ar      10 UNK        -0.0863 
     10 C10        16.5366  -29.5435  -45.1653 C.ar      10 UNK        -0.1009 
     11 C11        17.7864  -30.1202  -44.9208 C.ar      10 UNK        -0.0712 
     12 C12        18.8876  -29.7059  -45.6741 C.ar      10 UNK        -0.0894 
     13 C13        18.7526  -28.7008  -46.6348 C.ar      10 UNK        -0.0745 
     14 C14        17.4938  -28.1436  -46.8791 C.ar      10 UNK        -0.0972 
     15 C15        19.9643  -28.2144  -47.4127 C.3       10 UNK         0.0209 
     16 S16        20.7244  -26.7625  -46.6180 S.3       10 UNK        -0.2568 
     17 C17        21.6671  -27.5154  -45.2487 C.3       10 UNK        -0.0983 
     18 CA         21.2613  -26.9568  -43.8616 C.3       3 UNK         0.0876 
     19 N          19.8676  -27.2621  -43.5219 N.am      3 UNK        -0.4424 
     20 C          19.2082  -26.7247  -42.4891 C.2       2 UNK         0.4918 
     21 O          19.6800  -25.8617  -41.7462 O.2       2 UNK        -0.4875 
     22 CA         17.7497  -27.1544  -42.3090 C.3       2 UNK         0.0481 
     23 CB         17.3375  -27.2232  -40.8250 C.3       2 UNK        -0.1831 
     24 N          16.9378  -26.1877  -43.0372 N.am      2 UNK        -0.4498 
     25 C          15.6668  -26.3534  -43.4185 C.2       1 UNK         0.5027 
     26 O          14.9733  -27.3252  -43.1058 O.2       1 UNK        -0.4969 
     27 C          22.2315  -27.4789  -42.7823 C.2       3 UNK         0.5005 
     28 O          21.9817  -28.5226  -42.1737 O.2       3 UNK        -0.5279 
     29 N          23.3678  -26.7891  -42.6197 N.am      4 UNK        -0.4463 
     30 CA         24.4581  -27.1601  -41.7103 C.3       4 UNK         0.0283 
     31 CB         25.2047  -25.8874  -41.2708 C.3       4 UNK        -0.1875 
     32 C          25.4094  -28.2164  -42.3134 C.2       4 UNK         0.4949 
     33 O          26.6134  -28.1789  -42.0525 O.2       4 UNK        -0.5039 
     34 N          24.8627  -29.1364  -43.1187 N.am      5 UNK        -0.4663 
     35 CA         25.5717  -30.2439  -43.7580 C.3       5 UNK         0.0242 
     36 CB         24.6497  -30.8824  -44.8122 C.3       5 UNK        -0.1982 
     37 C          26.0109  -31.2616  -42.6952 C.2       5 UNK         0.5017 
     38 O          25.1644  -31.9943  -42.1861 O.2       5 UNK        -0.5012 
     39 N          27.3055  -31.2381  -42.3454 N.am      6 UNK        -0.4439 
     40 CA         27.9147  -31.9243  -41.1976 C.3       6 UNK         0.0297 
     41 CB         27.8391  -33.4597  -41.3455 C.3       6 UNK        -0.2006 
     42 C          27.3366  -31.4076  -39.8638 C.2       6 UNK         0.4892 
     43 O          26.8959  -32.1966  -39.0275 O.2       6 UNK        -0.5089 
     44 N          27.3214  -30.0735  -39.7226 N.am      7 UNK        -0.4243 
     45 CA         26.8062  -29.2569  -38.6134 C.3       7 UNK         0.0196 
     46 CB         27.3865  -29.6778  -37.2485 C.3       7 UNK        -0.2007 
     47 C          25.2726  -29.1494  -38.5687 C.2       7 UNK         0.5020 
     48 O          24.7667  -28.0798  -38.2298 O.2       7 UNK        -0.5147 
     49 N          24.5567  -30.2136  -38.9421 N.am      8 UNK        -0.4734 
     50 CA         23.1052  -30.2445  -39.1000 C.3       8 UNK         0.0238 
     51 CB         22.4058  -30.3299  -37.7298 C.3       8 UNK        -0.1912 
     52 C          22.7458  -31.4463  -39.9769 C.2       8 UNK         0.5038 
     53 O          23.1968  -32.5554  -39.6801 O.2       8 UNK        -0.5046 
     54 N          21.9507  -31.2004  -41.0244 N.am      9 UNK        -0.4200 
     55 CA         21.4781  -32.1922  -42.0002 C.3       9 UNK         0.0839 
     56 C          20.7183  -33.4062  -41.3885 C.2       9 UNK         0.5513 
     57 N          20.7411  -34.5482  -42.0633 N.am      9 UNK        -0.7519 
     58 O          20.0823  -33.3176  -40.3396 O.2       9 UNK        -0.4960 
     59 C59        20.6682  -31.5038  -43.1315 C.3       10 UNK        -0.0876 
     60 S60        19.1200  -30.7140  -42.5534 S.3       10 UNK        -0.2414 
     61 C61        17.9338  -31.1950  -43.8506 C.3       10 UNK         0.0169 
     62 H62        10.9199  -25.6313  -42.8175 H         1 UNK         0.0903 
     63 H63        10.8677  -23.9962  -43.4826 H         1 UNK         0.0903 
     64 H64        11.1018  -25.3786  -44.5543 H         1 UNK         0.0903 
     65 H65        13.2332  -25.6092  -45.2178 H         1 UNK         0.3096 
     66 H66        15.4144  -24.3019  -43.8796 H         1 UNK         0.1121 
     67 H67        16.7900  -25.5834  -45.7283 H         1 UNK         0.0849 
     68 H68        15.7529  -24.2731  -46.1504 H         1 UNK         0.0849 
     69 H69        14.4980  -28.6580  -47.1505 H         1 UNK         0.0865 
     70 H70        14.3565  -28.0884  -45.5159 H         1 UNK         0.0865 
     71 H71        15.6786  -29.8667  -44.5910 H         1 UNK         0.1346 
     72 H72        19.8533  -30.1580  -45.5025 H         1 UNK         0.1412 
     73 H73        17.3909  -27.3843  -47.6420 H         1 UNK         0.1426 
     74 H74        19.6639  -27.9412  -48.4254 H         1 UNK         0.0716 
     75 H75        20.7029  -29.0102  -47.5216 H         1 UNK         0.0716 
     76 H76        22.7212  -27.3122  -45.4487 H         1 UNK         0.0695 
     77 H77        21.5680  -28.6011  -45.2714 H         1 UNK         0.0695 
     78 H78        21.3544  -25.8687  -43.8908 H         1 UNK         0.0983 
     79 H79        19.4057  -27.9519  -44.0978 H         1 UNK         0.3095 
     80 H80        17.6146  -28.1400  -42.7561 H         1 UNK         0.0454 
     81 H81        17.3855  -26.2454  -40.3447 H         1 UNK         0.0851 
     82 H82        17.9967  -27.8938  -40.2724 H         1 UNK         0.0851 
     83 H83        16.3226  -27.6028  -40.7096 H         1 UNK         0.0851 
     84 H84        17.4358  -25.3581  -43.3321 H         1 UNK         0.2976 
     85 H85        23.5252  -25.9693  -43.1895 H         1 UNK         0.3116 
     86 H86        24.0209  -27.6050  -40.8159 H         1 UNK         0.0646 
     87 H87        25.7137  -25.4075  -42.1074 H         1 UNK         0.0847 
     88 H88        25.9591  -26.1175  -40.5170 H         1 UNK         0.0847 
     89 H89        24.5241  -25.1608  -40.8269 H         1 UNK         0.0847 
     90 H90        23.8548  -29.1364  -43.1995 H         1 UNK         0.3040 
     91 H91        26.4531  -29.8484  -44.2677 H         1 UNK         0.1015 
     92 H92        23.7307  -31.2682  -44.3693 H         1 UNK         0.0786 
     93 H93        25.1469  -31.7168  -45.3085 H         1 UNK         0.0786 
     94 H94        24.3728  -30.1642  -45.5844 H         1 UNK         0.0786 
     95 H95        27.9046  -30.5754  -42.8198 H         1 UNK         0.3172 
     96 H96        28.9707  -31.6496  -41.2001 H         1 UNK         0.0595 
     97 H97        28.4021  -33.9529  -40.5522 H         1 UNK         0.0839 
     98 H98        28.2605  -33.7890  -42.2951 H         1 UNK         0.0839 
     99 H99        26.8143  -33.8277  -41.2871 H         1 UNK         0.0839 
    100 H100       27.6219  -29.5293  -40.5230 H         1 UNK         0.2998 
    101 H101       27.1713  -28.2489  -38.8181 H         1 UNK         0.0822 
    102 H102       27.1075  -28.9617  -36.4745 H         1 UNK         0.0787 
    103 H103       27.0184  -30.6528  -36.9285 H         1 UNK         0.0787 
    104 H104       28.4753  -29.7197  -37.2746 H         1 UNK         0.0787 
    105 H105       25.0414  -31.0717  -39.1898 H         1 UNK         0.3055 
    106 H106       22.7858  -29.3291  -39.6035 H         1 UNK         0.1106 
    107 H107       21.3237  -30.3974  -37.8498 H         1 UNK         0.0828 
    108 H108       22.7281  -31.2080  -37.1690 H         1 UNK         0.0828 
    109 H109       22.6083  -29.4496  -37.1199 H         1 UNK         0.0828 
    110 H110       21.6706  -30.2441  -41.2179 H         1 UNK         0.2931 
    111 H111       22.3847  -32.5947  -42.4566 H         1 UNK         0.0412 
    112 H112       21.2558  -34.6359  -42.9258 H         1 UNK         0.3472 
    113 H113       20.2446  -35.3444  -41.6943 H         1 UNK         0.3472 
    114 H114       20.4516  -32.2256  -43.9201 H         1 UNK         0.0970 
    115 H115       21.2820  -30.7363  -43.6040 H         1 UNK         0.0970 
    116 H116       18.2213  -32.1399  -44.3123 H         1 UNK         0.0612 
    117 H117       16.9735  -31.3788  -43.3666 H         1 UNK         0.0612 
@<TRIPOS>BOND
     1    1    2 1    
     2    1   62 1    
     3    1   63 1    
     4    1   64 1    
     5    2    3 2    
     6    2    4 am   BACKBONE|DICT|INTERRES
     7    4    5 1    
     8    4   65 1    
     9    5    6 1    
    10    5   25 1    
    11    5   66 1    
    12    6    7 1    
    13    6   67 1    
    14    6   68 1    
    15    7    8 1    
    16    8    9 1    
    17    8   69 1    
    18    8   70 1    
    19    9   10 ar   
    20    9   14 ar   
    21   10   11 ar   
    22   10   71 1    
    23   11   12 ar   
    24   11   61 1    
    25   12   13 ar   
    26   12   72 1    
    27   13   14 ar   
    28   13   15 1    
    29   14   73 1    
    30   15   16 1    
    31   15   74 1    
    32   15   75 1    
    33   16   17 1    
    34   17   18 1    
    35   17   76 1    
    36   17   77 1    
    37   18   19 1    
    38   18   27 1    
    39   18   78 1    
    40   19   20 am   BACKBONE|DICT|INTERRES
    41   19   79 1    
    42   20   21 2    
    43   20   22 1    
    44   22   23 1    
    45   22   24 1    
    46   22   80 1    
    47   23   81 1    
    48   23   82 1    
    49   23   83 1    
    50   24   25 am   BACKBONE|DICT|INTERRES
    51   24   84 1    
    52   25   26 2    
    53   27   28 2    
    54   27   29 am   BACKBONE|DICT|INTERRES
    55   29   30 1    
    56   29   85 1    
    57   30   31 1    
    58   30   32 1    
    59   30   86 1    
    60   31   87 1    
    61   31   88 1    
    62   31   89 1    
    63   32   33 2    
    64   32   34 am   BACKBONE|DICT|INTERRES
    65   34   35 1    
    66   34   90 1    
    67   35   36 1    
    68   35   37 1    
    69   35   91 1    
    70   36   92 1    
    71   36   93 1    
    72   36   94 1    
    73   37   38 2    
    74   37   39 am   BACKBONE|DICT|INTERRES
    75   39   40 1    
    76   39   95 1    
    77   40   41 1    
    78   40   42 1    
    79   40   96 1    
    80   41   97 1    
    81   41   98 1    
    82   41   99 1    
    83   42   43 2    
    84   42   44 am   BACKBONE|DICT|INTERRES
    85   44   45 1    
    86   44  100 1    
    87   45   46 1    
    88   45   47 1    
    89   45  101 1    
    90   46  102 1    
    91   46  103 1    
    92   46  104 1    
    93   47   48 2    
    94   47   49 am   BACKBONE|DICT|INTERRES
    95   49   50 1    
    96   49  105 1    
    97   50   51 1    
    98   50   52 1    
    99   50  106 1    
   100   51  107 1    
   101   51  108 1    
   102   51  109 1    
   103   52   53 2    
   104   52   54 am   BACKBONE|DICT|INTERRES
   105   54   55 1    
   106   54  110 1    
   107   55   56 1    
   108   55   59 1    
   109   55  111 1    
   110   56   57 am   BACKBONE|DICT|INTERRES
   111   56   58 2    
   112   57  112 1    
   113   57  113 1    
   114   59   60 1    
   115   59  114 1    
   116   59  115 1    
   117   60   61 1    
   118   61  116 1    
   119   61  117 1    
@<TRIPOS>SUBSTRUCTURE
     1 UNK         1 GROUP             0       ****    0 ROOT    
