@<TRIPOS>MOLECULE
3R8
117   119    1
SMALL
USER_CHARGES


@<TRIPOS>ATOM
      1 CA         19.0286  -28.9162  -40.5942 C.3       0 UNK        -0.2013 
      2 C          18.5126  -28.1963  -41.8296 C.2       0 UNK         0.4866 
      3 O          19.3088  -27.7734  -42.6664 O.2       0 UNK        -0.5176 
      4 N          17.1854  -28.0330  -41.9395 N.am      1 UNK        -0.4884 
      5 CA         16.4838  -27.3058  -43.0092 C.3       1 UNK         0.0853 
      6 C6         16.5848  -28.0064  -44.3953 C.3       10 UNK        -0.0849 
      7 S7         15.8365  -29.6691  -44.3867 S.3       10 UNK        -0.2776 
      8 C8         16.3363  -30.2906  -46.0249 C.3       10 UNK         0.0316 
      9 C9         17.8225  -30.6166  -46.0830 C.ar      10 UNK        -0.0863 
     10 C10        18.3000  -31.8066  -45.5276 C.ar      10 UNK        -0.1009 
     11 C11        19.6615  -32.1205  -45.5797 C.ar      10 UNK        -0.0712 
     12 C12        20.5497  -31.2286  -46.1902 C.ar      10 UNK        -0.0894 
     13 C13        20.0843  -30.0383  -46.7604 C.ar      10 UNK        -0.0745 
     14 C14        18.7173  -29.7436  -46.7091 C.ar      10 UNK        -0.0972 
     15 C15        21.0511  -29.1021  -47.4788 C.3       10 UNK         0.0209 
     16 S16        20.9376  -27.3726  -46.9133 S.3       10 UNK        -0.2568 
     17 C17        21.7372  -27.4813  -45.2810 C.3       10 UNK        -0.0983 
     18 CA         21.7574  -26.1104  -44.5559 C.3       3 UNK         0.0876 
     19 N          20.4083  -25.6583  -44.2326 N.am      3 UNK        -0.4424 
     20 C          19.9355  -24.4204  -44.4280 C.2       2 UNK         0.4918 
     21 O          20.6276  -23.4936  -44.8521 O.2       2 UNK        -0.4875 
     22 CA         18.4460  -24.1704  -44.1160 C.3       2 UNK         0.0481 
     23 CB         17.7821  -23.2652  -45.1696 C.3       2 UNK        -0.1831 
     24 N          17.7121  -25.4345  -44.0390 N.am      2 UNK        -0.4498 
     25 C          16.9438  -25.8295  -43.0165 C.2       1 UNK         0.5027 
     26 O          16.6285  -25.1009  -42.0733 O.2       1 UNK        -0.4969 
     27 C          22.5498  -26.1693  -43.2423 C.2       3 UNK         0.5005 
     28 O          22.6687  -27.2384  -42.6458 O.2       3 UNK        -0.5279 
     29 N          23.0836  -25.0208  -42.8006 N.am      4 UNK        -0.4463 
     30 CA         23.8473  -24.8742  -41.5508 C.3       4 UNK         0.0283 
     31 CB         24.2434  -23.4009  -41.3658 C.3       4 UNK        -0.1875 
     32 C          25.0903  -25.7818  -41.4454 C.2       4 UNK         0.4949 
     33 O          25.4735  -26.1588  -40.3385 O.2       4 UNK        -0.5039 
     34 N          25.6737  -26.1448  -42.5957 N.am      5 UNK        -0.4663 
     35 CA         26.7716  -27.1080  -42.7145 C.3       5 UNK         0.0242 
     36 CB         27.4501  -26.9138  -44.0810 C.3       5 UNK        -0.1982 
     37 C          26.3354  -28.5772  -42.5357 C.2       5 UNK         0.5017 
     38 O          27.2043  -29.4348  -42.3751 O.2       5 UNK        -0.5012 
     39 N          25.0242  -28.8512  -42.5747 N.am      6 UNK        -0.4439 
     40 CA         24.4190  -30.1760  -42.4450 C.3       6 UNK         0.0297 
     41 CB         23.8775  -30.6213  -43.8166 C.3       6 UNK        -0.2006 
     42 C          23.3292  -30.1424  -41.3607 C.2       6 UNK         0.4892 
     43 O          22.2575  -30.7197  -41.5400 O.2       6 UNK        -0.5089 
     44 N          23.6273  -29.4765  -40.2346 N.am      7 UNK        -0.4243 
     45 CA         22.7164  -29.2488  -39.1043 C.3       7 UNK         0.0196 
     46 CB         23.4227  -28.3584  -38.0691 C.3       7 UNK        -0.2007 
     47 C          22.1605  -30.5223  -38.4328 C.2       7 UNK         0.5020 
     48 O          21.1690  -30.4349  -37.7090 O.2       7 UNK        -0.5147 
     49 N          22.7949  -31.6758  -38.6811 N.am      8 UNK        -0.4734 
     50 CA         22.3489  -32.9984  -38.2402 C.3       8 UNK         0.0238 
     51 CB         23.5176  -33.9881  -38.3814 C.3       8 UNK        -0.1912 
     52 C          21.1055  -33.5255  -38.9852 C.2       8 UNK         0.5038 
     53 O          20.4740  -34.4544  -38.4781 O.2       8 UNK        -0.5046 
     54 N          20.7814  -32.9642  -40.1608 N.am      9 UNK        -0.4200 
     55 CA         19.5921  -33.3193  -40.9539 C.3       9 UNK         0.0839 
     56 C          18.2567  -33.0132  -40.2197 C.2       9 UNK         0.5513 
     57 N          17.2206  -33.8021  -40.4706 N.am      9 UNK        -0.7519 
     58 O          18.1374  -32.0524  -39.4636 O.2       9 UNK        -0.4960 
     59 C59        19.6073  -32.6444  -42.3489 C.3       10 UNK        -0.0876 
     60 S60        20.9833  -33.2283  -43.3951 S.3       10 UNK        -0.2414 
     61 C61        20.1658  -33.4392  -45.0069 C.3       10 UNK         0.0169 
     62 H62        19.4807  -28.2007  -39.9086 H         1 UNK         0.0903 
     63 H63        19.7880  -29.6470  -40.8694 H         1 UNK         0.0903 
     64 H64        18.2314  -29.4374  -40.0656 H         1 UNK         0.0903 
     65 H65        16.5877  -28.3877  -41.2060 H         1 UNK         0.3096 
     66 H66        15.4292  -27.2821  -42.7292 H         1 UNK         0.1121 
     67 H67        17.6257  -28.0984  -44.7076 H         1 UNK         0.0849 
     68 H68        16.0744  -27.4197  -45.1617 H         1 UNK         0.0849 
     69 H69        15.7608  -31.1897  -46.2504 H         1 UNK         0.0865 
     70 H70        16.0676  -29.5611  -46.7906 H         1 UNK         0.0865 
     71 H71        17.6061  -32.4901  -45.0576 H         1 UNK         0.1346 
     72 H72        21.6022  -31.4734  -46.2326 H         1 UNK         0.1412 
     73 H73        18.3521  -28.8296  -47.1573 H         1 UNK         0.1426 
     74 H74        22.0817  -29.4436  -47.3693 H         1 UNK         0.0716 
     75 H75        20.8302  -29.1326  -48.5464 H         1 UNK         0.0716 
     76 H76        22.7537  -27.8512  -45.4277 H         1 UNK         0.0695 
     77 H77        21.2142  -28.2321  -44.6840 H         1 UNK         0.0695 
     78 H78        22.2555  -25.3947  -45.2140 H         1 UNK         0.0983 
     79 H79        19.8355  -26.3540  -43.7570 H         1 UNK         0.3095 
     80 H80        18.4180  -23.6565  -43.1533 H         1 UNK         0.0454 
     81 H81        16.7334  -23.0861  -44.9328 H         1 UNK         0.0851 
     82 H82        17.8309  -23.7052  -46.1663 H         1 UNK         0.0851 
     83 H83        18.2710  -22.2913  -45.2174 H         1 UNK         0.0851 
     84 H84        17.9316  -26.1074  -44.7601 H         1 UNK         0.2976 
     85 H85        22.9203  -24.1780  -43.3351 H         1 UNK         0.3116 
     86 H86        23.1802  -25.1525  -40.7321 H         1 UNK         0.0646 
     87 H87        23.3667  -22.7542  -41.3271 H         1 UNK         0.0847 
     88 H88        24.7889  -23.2579  -40.4318 H         1 UNK         0.0847 
     89 H89        24.8861  -23.0504  -42.1744 H         1 UNK         0.0847 
     90 H90        25.2958  -25.7772  -43.4568 H         1 UNK         0.3040 
     91 H91        27.5050  -26.8936  -41.9337 H         1 UNK         0.1015 
     92 H92        26.7645  -27.1160  -44.9050 H         1 UNK         0.0786 
     93 H93        28.3019  -27.5861  -44.1942 H         1 UNK         0.0786 
     94 H94        27.8264  -25.8971  -44.1971 H         1 UNK         0.0786 
     95 H95        24.3529  -28.0878  -42.6446 H         1 UNK         0.3172 
     96 H96        25.1625  -30.9050  -42.1175 H         1 UNK         0.0595 
     97 H97        23.0461  -29.9948  -44.1416 H         1 UNK         0.0839 
     98 H98        23.5129  -31.6477  -43.7751 H         1 UNK         0.0839 
     99 H99        24.6504  -30.5833  -44.5840 H         1 UNK         0.0839 
    100 H100       24.5302  -29.0270  -40.1793 H         1 UNK         0.2998 
    101 H101       21.8594  -28.6986  -39.4962 H         1 UNK         0.0822 
    102 H102       22.7652  -28.1384  -37.2267 H         1 UNK         0.0787 
    103 H103       24.3170  -28.8377  -37.6691 H         1 UNK         0.0787 
    104 H104       23.7180  -27.4028  -38.5033 H         1 UNK         0.0787 
    105 H105       23.6000  -31.6463  -39.2893 H         1 UNK         0.3055 
    106 H106       22.0820  -32.9310  -37.1830 H         1 UNK         0.1106 
    107 H107       24.3805  -33.6716  -37.7953 H         1 UNK         0.0828 
    108 H108       23.2346  -34.9801  -38.0261 H         1 UNK         0.0828 
    109 H109       23.8346  -34.0932  -39.4198 H         1 UNK         0.0828 
    110 H110       21.3456  -32.2023  -40.5241 H         1 UNK         0.2931 
    111 H111       19.6337  -34.3998  -41.1077 H         1 UNK         0.0412 
    112 H112       17.3031  -34.5916  -41.0925 H         1 UNK         0.3472 
    113 H113       16.3407  -33.6132  -40.0161 H         1 UNK         0.3472 
    114 H114       19.6767  -31.5594  -42.2600 H         1 UNK         0.0970 
    115 H115       18.6687  -32.8432  -42.8681 H         1 UNK         0.0970 
    116 H116       20.8772  -33.8860  -45.7029 H         1 UNK         0.0612 
    117 H117       19.3494  -34.1560  -44.9058 H         1 UNK         0.0612 
@<TRIPOS>BOND
     1    1    2 1    
     2    1   62 1    
     3    1   63 1    
     4    1   64 1    
     5    2    3 2    
     6    2    4 am   BACKBONE|DICT|INTERRES
     7    4    5 1    
     8    4   65 1    
     9    5    6 1    
    10    5   25 1    
    11    5   66 1    
    12    6    7 1    
    13    6   67 1    
    14    6   68 1    
    15    7    8 1    
    16    8    9 1    
    17    8   69 1    
    18    8   70 1    
    19    9   10 ar   
    20    9   14 ar   
    21   10   11 ar   
    22   10   71 1    
    23   11   12 ar   
    24   11   61 1    
    25   12   13 ar   
    26   12   72 1    
    27   13   14 ar   
    28   13   15 1    
    29   14   73 1    
    30   15   16 1    
    31   15   74 1    
    32   15   75 1    
    33   16   17 1    
    34   17   18 1    
    35   17   76 1    
    36   17   77 1    
    37   18   19 1    
    38   18   27 1    
    39   18   78 1    
    40   19   20 am   BACKBONE|DICT|INTERRES
    41   19   79 1    
    42   20   21 2    
    43   20   22 1    
    44   22   23 1    
    45   22   24 1    
    46   22   80 1    
    47   23   81 1    
    48   23   82 1    
    49   23   83 1    
    50   24   25 am   BACKBONE|DICT|INTERRES
    51   24   84 1    
    52   25   26 2    
    53   27   28 2    
    54   27   29 am   BACKBONE|DICT|INTERRES
    55   29   30 1    
    56   29   85 1    
    57   30   31 1    
    58   30   32 1    
    59   30   86 1    
    60   31   87 1    
    61   31   88 1    
    62   31   89 1    
    63   32   33 2    
    64   32   34 am   BACKBONE|DICT|INTERRES
    65   34   35 1    
    66   34   90 1    
    67   35   36 1    
    68   35   37 1    
    69   35   91 1    
    70   36   92 1    
    71   36   93 1    
    72   36   94 1    
    73   37   38 2    
    74   37   39 am   BACKBONE|DICT|INTERRES
    75   39   40 1    
    76   39   95 1    
    77   40   41 1    
    78   40   42 1    
    79   40   96 1    
    80   41   97 1    
    81   41   98 1    
    82   41   99 1    
    83   42   43 2    
    84   42   44 am   BACKBONE|DICT|INTERRES
    85   44   45 1    
    86   44  100 1    
    87   45   46 1    
    88   45   47 1    
    89   45  101 1    
    90   46  102 1    
    91   46  103 1    
    92   46  104 1    
    93   47   48 2    
    94   47   49 am   BACKBONE|DICT|INTERRES
    95   49   50 1    
    96   49  105 1    
    97   50   51 1    
    98   50   52 1    
    99   50  106 1    
   100   51  107 1    
   101   51  108 1    
   102   51  109 1    
   103   52   53 2    
   104   52   54 am   BACKBONE|DICT|INTERRES
   105   54   55 1    
   106   54  110 1    
   107   55   56 1    
   108   55   59 1    
   109   55  111 1    
   110   56   57 am   BACKBONE|DICT|INTERRES
   111   56   58 2    
   112   57  112 1    
   113   57  113 1    
   114   59   60 1    
   115   59  114 1    
   116   59  115 1    
   117   60   61 1    
   118   61  116 1    
   119   61  117 1    
@<TRIPOS>SUBSTRUCTURE
     1 UNK         1 GROUP             0       ****    0 ROOT    
