@<TRIPOS>MOLECULE
3R8
117   119    1
SMALL
USER_CHARGES


@<TRIPOS>ATOM
      1 CA         16.7842  -26.6802  -41.3343 C.3       0 UNK        -0.2013 
      2 C          17.2865  -26.5463  -42.7630 C.2       0 UNK         0.4866 
      3 O          18.2815  -27.1770  -43.1245 O.2       0 UNK        -0.5176 
      4 N          16.6154  -25.7027  -43.5633 N.am      1 UNK        -0.4884 
      5 CA         16.7691  -25.5284  -45.0219 C.3       1 UNK         0.0853 
      6 C6         16.3171  -26.7843  -45.8162 C.3       10 UNK        -0.0849 
      7 S7         14.6360  -27.3682  -45.3850 S.3       10 UNK        -0.2776 
      8 C8         14.5592  -28.9910  -46.2215 C.3       10 UNK         0.0316 
      9 C9         15.7219  -29.8887  -45.8242 C.ar      10 UNK        -0.0863 
     10 C10        15.7331  -30.5282  -44.5800 C.ar      10 UNK        -0.1009 
     11 C11        16.8539  -31.2593  -44.1740 C.ar      10 UNK        -0.0712 
     12 C12        17.9543  -31.3660  -45.0274 C.ar      10 UNK        -0.0894 
     13 C13        17.9608  -30.7115  -46.2610 C.ar      10 UNK        -0.0745 
     14 C14        16.8284  -30.0059  -46.6714 C.ar      10 UNK        -0.0972 
     15 C15        19.2264  -30.6797  -47.1030 C.3       10 UNK         0.0209 
     16 S16        20.1395  -29.1185  -46.8496 S.3       10 UNK        -0.2568 
     17 C17        20.5395  -29.2252  -45.0729 C.3       10 UNK        -0.0983 
     18 CA         21.4089  -28.0490  -44.5728 C.3       3 UNK         0.0876 
     19 N          20.7135  -26.7618  -44.6522 N.am      3 UNK        -0.4424 
     20 C          21.3142  -25.5649  -44.7073 C.2       2 UNK         0.4918 
     21 O          22.5353  -25.4302  -44.7867 O.2       2 UNK        -0.4875 
     22 CA         20.4319  -24.2995  -44.5998 C.3       2 UNK         0.0481 
     23 CB         20.7620  -23.2692  -45.6995 C.3       2 UNK        -0.1831 
     24 N          18.9890  -24.5708  -44.5173 N.am      2 UNK        -0.4498 
     25 C          18.1832  -25.0738  -45.4661 C.2       1 UNK         0.5027 
     26 O          18.5279  -25.2236  -46.6389 O.2       1 UNK        -0.4969 
     27 C          21.8599  -28.3074  -43.1246 C.2       3 UNK         0.5005 
     28 O          22.9788  -28.7735  -42.9135 O.2       3 UNK        -0.5279 
     29 N          21.0069  -27.9500  -42.1499 N.am      4 UNK        -0.4463 
     30 CA         21.2463  -28.0890  -40.7063 C.3       4 UNK         0.0283 
     31 CB         19.9665  -27.7136  -39.9458 C.3       4 UNK        -0.1875 
     32 C          22.4519  -27.3000  -40.1567 C.2       4 UNK         0.4949 
     33 O          22.8581  -27.5455  -39.0214 O.2       4 UNK        -0.5039 
     34 N          23.0105  -26.3851  -40.9611 N.am      5 UNK        -0.4663 
     35 CA         24.2680  -25.6834  -40.6960 C.3       5 UNK         0.0242 
     36 CB         24.3822  -24.4936  -41.6635 C.3       5 UNK        -0.1982 
     37 C          25.5123  -26.5901  -40.8026 C.2       5 UNK         0.5017 
     38 O          26.5664  -26.2099  -40.2903 O.2       5 UNK        -0.5012 
     39 N          25.3825  -27.7521  -41.4616 N.am      6 UNK        -0.4439 
     40 CA         26.4093  -28.7921  -41.5538 C.3       6 UNK         0.0297 
     41 CB         26.2080  -29.5650  -42.8730 C.3       6 UNK        -0.2006 
     42 C          26.3825  -29.7135  -40.3145 C.2       6 UNK         0.4892 
     43 O          25.8988  -29.3183  -39.2503 O.2       6 UNK        -0.5089 
     44 N          26.9099  -30.9368  -40.4609 N.am      7 UNK        -0.4243 
     45 CA         26.9014  -31.9927  -39.4441 C.3       7 UNK         0.0196 
     46 CB         27.9721  -33.0398  -39.8047 C.3       7 UNK        -0.2007 
     47 C          25.4954  -32.6089  -39.2948 C.2       7 UNK         0.5020 
     48 O          25.2679  -33.7370  -39.7358 O.2       7 UNK        -0.5147 
     49 N          24.5846  -31.8284  -38.6965 N.am      8 UNK        -0.4734 
     50 CA         23.1382  -32.0486  -38.5560 C.3       8 UNK         0.0238 
     51 CB         22.8330  -33.3860  -37.8443 C.3       8 UNK        -0.1912 
     52 C          22.3878  -31.9053  -39.8959 C.2       8 UNK         0.5038 
     53 O          23.0012  -31.6310  -40.9295 O.2       8 UNK        -0.5046 
     54 N          21.0562  -32.0412  -39.8417 N.am      9 UNK        -0.4200 
     55 CA         20.1580  -31.9362  -40.9991 C.3       9 UNK         0.0839 
     56 C          20.3531  -33.1259  -41.9773 C.2       9 UNK         0.5513 
     57 N          20.8909  -32.8844  -43.1647 N.am      9 UNK        -0.7519 
     58 O          20.0026  -34.2618  -41.6665 O.2       9 UNK        -0.4960 
     59 C59        18.6774  -31.7771  -40.5478 C.3       10 UNK        -0.0876 
     60 S60        17.7389  -30.6785  -41.6564 S.3       10 UNK        -0.2414 
     61 C61        16.9288  -31.8581  -42.7806 C.3       10 UNK         0.0169 
     62 H62        16.7946  -27.7266  -41.0309 H         1 UNK         0.0903 
     63 H63        17.4204  -26.1166  -40.6538 H         1 UNK         0.0903 
     64 H64        15.7633  -26.3137  -41.2299 H         1 UNK         0.0903 
     65 H65        15.8330  -25.1975  -43.1696 H         1 UNK         0.3096 
     66 H66        16.1044  -24.7089  -45.2998 H         1 UNK         0.1121 
     67 H67        17.0351  -27.5825  -45.6283 H         1 UNK         0.0849 
     68 H68        16.3366  -26.5976  -46.8916 H         1 UNK         0.0849 
     69 H69        13.6165  -29.4788  -45.9697 H         1 UNK         0.0865 
     70 H70        14.5435  -28.8370  -47.3016 H         1 UNK         0.0865 
     71 H71        14.8944  -30.4101  -43.9076 H         1 UNK         0.1346 
     72 H72        18.8356  -31.8971  -44.6973 H         1 UNK         0.1412 
     73 H73        16.8430  -29.4795  -47.6162 H         1 UNK         0.1426 
     74 H74        18.9706  -30.7775  -48.1590 H         1 UNK         0.0716 
     75 H75        19.8739  -31.5243  -46.8623 H         1 UNK         0.0716 
     76 H76        21.0479  -30.1768  -44.9064 H         1 UNK         0.0695 
     77 H77        19.6091  -29.2630  -44.5032 H         1 UNK         0.0695 
     78 H78        22.3078  -28.0024  -45.1920 H         1 UNK         0.0983 
     79 H79        19.7091  -26.7967  -44.5169 H         1 UNK         0.3095 
     80 H80        20.6922  -23.8430  -43.6438 H         1 UNK         0.0454 
     81 H81        21.8002  -22.9430  -45.6271 H         1 UNK         0.0851 
     82 H82        20.1382  -22.3799  -45.6124 H         1 UNK         0.0851 
     83 H83        20.6261  -23.6802  -46.6999 H         1 UNK         0.0851 
     84 H84        18.5919  -24.5029  -43.5900 H         1 UNK         0.2976 
     85 H85        20.0908  -27.6051  -42.4261 H         1 UNK         0.3116 
     86 H86        21.4568  -29.1411  -40.5151 H         1 UNK         0.0646 
     87 H87        19.7046  -26.6666  -40.0992 H         1 UNK         0.0847 
     88 H88        19.1232  -28.3266  -40.2620 H         1 UNK         0.0847 
     89 H89        20.0884  -27.8655  -38.8725 H         1 UNK         0.0847 
     90 H90        22.6062  -26.2555  -41.8768 H         1 UNK         0.3040 
     91 H91        24.2354  -25.2978  -39.6745 H         1 UNK         0.1015 
     92 H92        25.2911  -23.9210  -41.4729 H         1 UNK         0.0786 
     93 H93        23.5409  -23.8089  -41.5539 H         1 UNK         0.0786 
     94 H94        24.4158  -24.8213  -42.7035 H         1 UNK         0.0786 
     95 H95        24.4707  -27.9996  -41.8368 H         1 UNK         0.3172 
     96 H96        27.3921  -28.3179  -41.5873 H         1 UNK         0.0595 
     97 H97        25.3120  -30.1876  -42.8418 H         1 UNK         0.0839 
     98 H98        27.0561  -30.2137  -43.0936 H         1 UNK         0.0839 
     99 H99        26.1061  -28.8843  -43.7186 H         1 UNK         0.0839 
    100 H100       27.2631  -31.1975  -41.3700 H         1 UNK         0.2998 
    101 H101       27.1764  -31.5565  -38.4810 H         1 UNK         0.0822 
    102 H102       27.9984  -33.8402  -39.0640 H         1 UNK         0.0787 
    103 H103       27.7802  -33.4997  -40.7751 H         1 UNK         0.0787 
    104 H104       28.9671  -32.5955  -39.8349 H         1 UNK         0.0787 
    105 H105       24.8927  -30.8813  -38.4927 H         1 UNK         0.3055 
    106 H106       22.7810  -31.2388  -37.9173 H         1 UNK         0.1106 
    107 H107       23.4435  -33.5076  -36.9495 H         1 UNK         0.0828 
    108 H108       21.7915  -33.4392  -37.5268 H         1 UNK         0.0828 
    109 H109       23.0152  -34.2440  -38.4923 H         1 UNK         0.0828 
    110 H110       20.6245  -32.2898  -38.9644 H         1 UNK         0.2931 
    111 H111       20.4477  -31.0212  -41.5206 H         1 UNK         0.0412 
    112 H112       21.0276  -33.6497  -43.8059 H         1 UNK         0.3472 
    113 H113       21.2506  -31.9700  -43.3854 H         1 UNK         0.3472 
    114 H114       18.1680  -32.7359  -40.4325 H         1 UNK         0.0970 
    115 H115       18.6328  -31.3076  -39.5639 H         1 UNK         0.0970 
    116 H116       15.9326  -32.0949  -42.4043 H         1 UNK         0.0612 
    117 H117       17.4825  -32.7973  -42.8144 H         1 UNK         0.0612 
@<TRIPOS>BOND
     1    1    2 1    
     2    1   62 1    
     3    1   63 1    
     4    1   64 1    
     5    2    3 2    
     6    2    4 am   BACKBONE|DICT|INTERRES
     7    4    5 1    
     8    4   65 1    
     9    5    6 1    
    10    5   25 1    
    11    5   66 1    
    12    6    7 1    
    13    6   67 1    
    14    6   68 1    
    15    7    8 1    
    16    8    9 1    
    17    8   69 1    
    18    8   70 1    
    19    9   10 ar   
    20    9   14 ar   
    21   10   11 ar   
    22   10   71 1    
    23   11   12 ar   
    24   11   61 1    
    25   12   13 ar   
    26   12   72 1    
    27   13   14 ar   
    28   13   15 1    
    29   14   73 1    
    30   15   16 1    
    31   15   74 1    
    32   15   75 1    
    33   16   17 1    
    34   17   18 1    
    35   17   76 1    
    36   17   77 1    
    37   18   19 1    
    38   18   27 1    
    39   18   78 1    
    40   19   20 am   BACKBONE|DICT|INTERRES
    41   19   79 1    
    42   20   21 2    
    43   20   22 1    
    44   22   23 1    
    45   22   24 1    
    46   22   80 1    
    47   23   81 1    
    48   23   82 1    
    49   23   83 1    
    50   24   25 am   BACKBONE|DICT|INTERRES
    51   24   84 1    
    52   25   26 2    
    53   27   28 2    
    54   27   29 am   BACKBONE|DICT|INTERRES
    55   29   30 1    
    56   29   85 1    
    57   30   31 1    
    58   30   32 1    
    59   30   86 1    
    60   31   87 1    
    61   31   88 1    
    62   31   89 1    
    63   32   33 2    
    64   32   34 am   BACKBONE|DICT|INTERRES
    65   34   35 1    
    66   34   90 1    
    67   35   36 1    
    68   35   37 1    
    69   35   91 1    
    70   36   92 1    
    71   36   93 1    
    72   36   94 1    
    73   37   38 2    
    74   37   39 am   BACKBONE|DICT|INTERRES
    75   39   40 1    
    76   39   95 1    
    77   40   41 1    
    78   40   42 1    
    79   40   96 1    
    80   41   97 1    
    81   41   98 1    
    82   41   99 1    
    83   42   43 2    
    84   42   44 am   BACKBONE|DICT|INTERRES
    85   44   45 1    
    86   44  100 1    
    87   45   46 1    
    88   45   47 1    
    89   45  101 1    
    90   46  102 1    
    91   46  103 1    
    92   46  104 1    
    93   47   48 2    
    94   47   49 am   BACKBONE|DICT|INTERRES
    95   49   50 1    
    96   49  105 1    
    97   50   51 1    
    98   50   52 1    
    99   50  106 1    
   100   51  107 1    
   101   51  108 1    
   102   51  109 1    
   103   52   53 2    
   104   52   54 am   BACKBONE|DICT|INTERRES
   105   54   55 1    
   106   54  110 1    
   107   55   56 1    
   108   55   59 1    
   109   55  111 1    
   110   56   57 am   BACKBONE|DICT|INTERRES
   111   56   58 2    
   112   57  112 1    
   113   57  113 1    
   114   59   60 1    
   115   59  114 1    
   116   59  115 1    
   117   60   61 1    
   118   61  116 1    
   119   61  117 1    
@<TRIPOS>SUBSTRUCTURE
     1 UNK         1 GROUP             0       ****    0 ROOT    
