@<TRIPOS>MOLECULE
3R8
117   119    1
SMALL
USER_CHARGES


@<TRIPOS>ATOM
      1 CA         16.9811  -24.2391  -48.3455 C.3       0 UNK        -0.2013 
      2 C          17.1245  -24.9639  -47.0155 C.2       0 UNK         0.4866 
      3 O          18.0836  -24.7171  -46.2845 O.2       0 UNK        -0.5176 
      4 N          16.1835  -25.8621  -46.7015 N.am      1 UNK        -0.4884 
      5 CA         16.1387  -26.6223  -45.4472 C.3       1 UNK         0.0853 
      6 C6         15.1797  -27.8342  -45.5516 C.3       10 UNK        -0.0849 
      7 S7         15.6760  -29.0032  -46.8607 S.3       10 UNK        -0.2776 
      8 C8         15.9791  -30.5283  -45.9111 C.3       10 UNK         0.0316 
      9 C9         17.2002  -30.4308  -45.0052 C.ar      10 UNK        -0.0863 
     10 C10        17.0736  -30.6115  -43.6251 C.ar      10 UNK        -0.1009 
     11 C11        18.2011  -30.5967  -42.7975 C.ar      10 UNK        -0.0712 
     12 C12        19.4652  -30.3866  -43.3592 C.ar      10 UNK        -0.0894 
     13 C13        19.6011  -30.1841  -44.7373 C.ar      10 UNK        -0.0745 
     14 C14        18.4667  -30.2115  -45.5527 C.ar      10 UNK        -0.0972 
     15 C15        20.9696  -29.9692  -45.3663 C.3       10 UNK         0.0209 
     16 S16        21.3617  -28.2030  -45.5678 S.3       10 UNK        -0.2568 
     17 C17        21.8883  -27.7370  -43.8852 C.3       10 UNK        -0.0983 
     18 CA         21.0185  -26.6071  -43.2835 C.3       3 UNK         0.0876 
     19 N          19.6175  -27.0161  -43.1418 N.am      3 UNK        -0.4424 
     20 C          18.6086  -26.1837  -42.8652 C.2       2 UNK         0.4918 
     21 O          18.7292  -24.9608  -42.7596 O.2       2 UNK        -0.4875 
     22 CA         17.2372  -26.8366  -42.6310 C.3       2 UNK         0.0481 
     23 CB         17.0666  -27.1734  -41.1414 C.3       2 UNK        -0.1831 
     24 N          16.1605  -25.9311  -43.0359 N.am      2 UNK        -0.4498 
     25 C          15.6983  -25.7102  -44.2751 C.2       1 UNK         0.5027 
     26 O          14.8696  -24.8239  -44.4923 O.2       1 UNK        -0.4969 
     27 C          21.6060  -26.1310  -41.9355 C.2       3 UNK         0.5005 
     28 O          21.1377  -26.5508  -40.8735 O.2       3 UNK        -0.5279 
     29 N          22.6337  -25.2777  -42.0099 N.am      4 UNK        -0.4463 
     30 CA         23.3806  -24.7554  -40.8639 C.3       4 UNK         0.0283 
     31 CB         23.6307  -23.2536  -41.0895 C.3       4 UNK        -0.1875 
     32 C          24.7155  -25.5003  -40.7002 C.2       4 UNK         0.4949 
     33 O          25.1558  -26.1846  -41.6272 O.2       4 UNK        -0.5039 
     34 N          25.3480  -25.3117  -39.5319 N.am      5 UNK        -0.4663 
     35 CA         26.6421  -25.8733  -39.1195 C.3       5 UNK         0.0242 
     36 CB         27.7927  -25.2670  -39.9573 C.3       5 UNK        -0.1982 
     37 C          26.6070  -27.4134  -39.1009 C.2       5 UNK         0.5017 
     38 O          25.7684  -27.9799  -38.3960 O.2       5 UNK        -0.5012 
     39 N          27.4846  -28.0685  -39.8737 N.am      6 UNK        -0.4439 
     40 CA         27.5068  -29.5170  -40.0979 C.3       6 UNK         0.0297 
     41 CB         28.8976  -29.9236  -40.6196 C.3       6 UNK        -0.2006 
     42 C          26.3696  -29.9335  -41.0518 C.2       6 UNK         0.4892 
     43 O          26.6229  -30.3099  -42.1973 O.2       6 UNK        -0.5089 
     44 N          25.1316  -29.7986  -40.5620 N.am      7 UNK        -0.4243 
     45 CA         23.8894  -29.9524  -41.3171 C.3       7 UNK         0.0196 
     46 CB         22.7225  -29.4706  -40.4409 C.3       7 UNK        -0.2007 
     47 C          23.6201  -31.3812  -41.8077 C.2       7 UNK         0.5020 
     48 O          23.0187  -31.5431  -42.8686 O.2       7 UNK        -0.5147 
     49 N          24.0302  -32.3827  -41.0150 N.am      8 UNK        -0.4734 
     50 CA         23.8137  -33.8297  -41.1793 C.3       8 UNK         0.0238 
     51 CB         24.4647  -34.3645  -42.4709 C.3       8 UNK        -0.1912 
     52 C          22.3354  -34.2504  -41.0724 C.2       8 UNK         0.5038 
     53 O          22.0085  -35.0768  -40.2201 O.2       8 UNK        -0.5046 
     54 N          21.4754  -33.6549  -41.9090 N.am      9 UNK        -0.4200 
     55 CA         20.0133  -33.8186  -41.9299 C.3       9 UNK         0.0839 
     56 C          19.5255  -35.2525  -42.3075 C.2       9 UNK         0.5513 
     57 N          20.3174  -36.0377  -43.0289 N.am      9 UNK        -0.7519 
     58 O          18.4184  -35.6604  -41.9663 O.2       9 UNK        -0.4960 
     59 C59        19.3660  -33.2357  -40.6397 C.3       10 UNK        -0.0876 
     60 S60        17.6937  -32.5513  -40.8954 S.3       10 UNK        -0.2414 
     61 C61        18.0356  -30.8079  -41.2992 C.3       10 UNK         0.0169 
     62 H62        17.8549  -24.4243  -48.9697 H         1 UNK         0.0903 
     63 H63        16.0975  -24.5642  -48.8945 H         1 UNK         0.0903 
     64 H64        16.9015  -23.1649  -48.1803 H         1 UNK         0.0903 
     65 H65        15.4118  -26.0207  -47.3334 H         1 UNK         0.3096 
     66 H66        17.1498  -26.9930  -45.2746 H         1 UNK         0.1121 
     67 H67        14.1611  -27.5022  -45.7626 H         1 UNK         0.0849 
     68 H68        15.1290  -28.3643  -44.5985 H         1 UNK         0.0849 
     69 H69        15.0837  -30.7790  -45.3398 H         1 UNK         0.0865 
     70 H70        16.1300  -31.3509  -46.6114 H         1 UNK         0.0865 
     71 H71        16.0987  -30.7884  -43.1910 H         1 UNK         0.1346 
     72 H72        20.3428  -30.3940  -42.7280 H         1 UNK         0.1412 
     73 H73        18.5698  -30.0721  -46.6206 H         1 UNK         0.1426 
     74 H74        20.9952  -30.4426  -46.3489 H         1 UNK         0.0716 
     75 H75        21.7485  -30.4585  -44.7836 H         1 UNK         0.0716 
     76 H76        22.9330  -27.4264  -43.9508 H         1 UNK         0.0695 
     77 H77        21.8776  -28.6140  -43.2386 H         1 UNK         0.0695 
     78 H78        21.0387  -25.7563  -43.9689 H         1 UNK         0.0983 
     79 H79        19.4384  -28.0070  -43.2141 H         1 UNK         0.3095 
     80 H80        17.1746  -27.7692  -43.1921 H         1 UNK         0.0454 
     81 H81        17.0787  -26.2773  -40.5196 H         1 UNK         0.0851 
     82 H82        17.8743  -27.8167  -40.7899 H         1 UNK         0.0851 
     83 H83        16.1292  -27.6984  -40.9574 H         1 UNK         0.0851 
     84 H84        15.8416  -25.3050  -42.3113 H         1 UNK         0.2976 
     85 H85        23.0103  -25.0458  -42.9185 H         1 UNK         0.3116 
     86 H86        22.8018  -24.8786  -39.9459 H         1 UNK         0.0646 
     87 H87        22.6935  -22.7109  -41.2148 H         1 UNK         0.0847 
     88 H88        24.2427  -23.0732  -41.9744 H         1 UNK         0.0847 
     89 H89        24.1484  -22.8058  -40.2404 H         1 UNK         0.0847 
     90 H90        24.8818  -24.7531  -38.8298 H         1 UNK         0.3040 
     91 H91        26.7967  -25.5685  -38.0830 H         1 UNK         0.1015 
     92 H92        27.7176  -25.5218  -41.0150 H         1 UNK         0.0786 
     93 H93        28.7656  -25.6064  -39.5986 H         1 UNK         0.0786 
     94 H94        27.7934  -24.1793  -39.8846 H         1 UNK         0.0786 
     95 H95        28.1030  -27.5166  -40.4506 H         1 UNK         0.3172 
     96 H96        27.3462  -30.0265  -39.1453 H         1 UNK         0.0595 
     97 H97        29.1367  -29.4344  -41.5648 H         1 UNK         0.0839 
     98 H98        28.9505  -31.0001  -40.7879 H         1 UNK         0.0839 
     99 H99        29.6797  -29.6706  -39.9035 H         1 UNK         0.0839 
    100 H100       25.0512  -29.4093  -39.6279 H         1 UNK         0.2998 
    101 H101       23.9592  -29.3066  -42.1947 H         1 UNK         0.0822 
    102 H102       22.8759  -28.4422  -40.1134 H         1 UNK         0.0787 
    103 H103       21.7776  -29.5000  -40.9836 H         1 UNK         0.0787 
    104 H104       22.6039  -30.0876  -39.5494 H         1 UNK         0.0787 
    105 H105       24.4945  -32.1157  -40.1576 H         1 UNK         0.3055 
    106 H106       24.3291  -34.3025  -40.3412 H         1 UNK         0.1106 
    107 H107       24.0050  -33.9523  -43.3694 H         1 UNK         0.0828 
    108 H108       24.3736  -35.4498  -42.5306 H         1 UNK         0.0828 
    109 H109       25.5281  -34.1271  -42.5032 H         1 UNK         0.0828 
    110 H110       21.8618  -32.9604  -42.5436 H         1 UNK         0.2931 
    111 H111       19.6928  -33.1971  -42.7659 H         1 UNK         0.0412 
    112 H112       20.0028  -36.9624  -43.2785 H         1 UNK         0.3472 
    113 H113       21.2251  -35.7150  -43.3235 H         1 UNK         0.3472 
    114 H114       19.9896  -32.4423  -40.2250 H         1 UNK         0.0970 
    115 H115       19.3187  -33.9969  -39.8589 H         1 UNK         0.0970 
    116 H116       18.9087  -30.4503  -40.7516 H         1 UNK         0.0612 
    117 H117       17.1939  -30.2092  -40.9492 H         1 UNK         0.0612 
@<TRIPOS>BOND
     1    1    2 1    
     2    1   62 1    
     3    1   63 1    
     4    1   64 1    
     5    2    3 2    
     6    2    4 am   BACKBONE|DICT|INTERRES
     7    4    5 1    
     8    4   65 1    
     9    5    6 1    
    10    5   25 1    
    11    5   66 1    
    12    6    7 1    
    13    6   67 1    
    14    6   68 1    
    15    7    8 1    
    16    8    9 1    
    17    8   69 1    
    18    8   70 1    
    19    9   10 ar   
    20    9   14 ar   
    21   10   11 ar   
    22   10   71 1    
    23   11   12 ar   
    24   11   61 1    
    25   12   13 ar   
    26   12   72 1    
    27   13   14 ar   
    28   13   15 1    
    29   14   73 1    
    30   15   16 1    
    31   15   74 1    
    32   15   75 1    
    33   16   17 1    
    34   17   18 1    
    35   17   76 1    
    36   17   77 1    
    37   18   19 1    
    38   18   27 1    
    39   18   78 1    
    40   19   20 am   BACKBONE|DICT|INTERRES
    41   19   79 1    
    42   20   21 2    
    43   20   22 1    
    44   22   23 1    
    45   22   24 1    
    46   22   80 1    
    47   23   81 1    
    48   23   82 1    
    49   23   83 1    
    50   24   25 am   BACKBONE|DICT|INTERRES
    51   24   84 1    
    52   25   26 2    
    53   27   28 2    
    54   27   29 am   BACKBONE|DICT|INTERRES
    55   29   30 1    
    56   29   85 1    
    57   30   31 1    
    58   30   32 1    
    59   30   86 1    
    60   31   87 1    
    61   31   88 1    
    62   31   89 1    
    63   32   33 2    
    64   32   34 am   BACKBONE|DICT|INTERRES
    65   34   35 1    
    66   34   90 1    
    67   35   36 1    
    68   35   37 1    
    69   35   91 1    
    70   36   92 1    
    71   36   93 1    
    72   36   94 1    
    73   37   38 2    
    74   37   39 am   BACKBONE|DICT|INTERRES
    75   39   40 1    
    76   39   95 1    
    77   40   41 1    
    78   40   42 1    
    79   40   96 1    
    80   41   97 1    
    81   41   98 1    
    82   41   99 1    
    83   42   43 2    
    84   42   44 am   BACKBONE|DICT|INTERRES
    85   44   45 1    
    86   44  100 1    
    87   45   46 1    
    88   45   47 1    
    89   45  101 1    
    90   46  102 1    
    91   46  103 1    
    92   46  104 1    
    93   47   48 2    
    94   47   49 am   BACKBONE|DICT|INTERRES
    95   49   50 1    
    96   49  105 1    
    97   50   51 1    
    98   50   52 1    
    99   50  106 1    
   100   51  107 1    
   101   51  108 1    
   102   51  109 1    
   103   52   53 2    
   104   52   54 am   BACKBONE|DICT|INTERRES
   105   54   55 1    
   106   54  110 1    
   107   55   56 1    
   108   55   59 1    
   109   55  111 1    
   110   56   57 am   BACKBONE|DICT|INTERRES
   111   56   58 2    
   112   57  112 1    
   113   57  113 1    
   114   59   60 1    
   115   59  114 1    
   116   59  115 1    
   117   60   61 1    
   118   61  116 1    
   119   61  117 1    
@<TRIPOS>SUBSTRUCTURE
     1 UNK         1 GROUP             0       ****    0 ROOT    
