@<TRIPOS>MOLECULE
3R8
117   119    1
SMALL
USER_CHARGES


@<TRIPOS>ATOM
      1 CA         14.7544  -23.1724  -43.6072 C.3       0 UNK        -0.2013 
      2 C          15.8388  -24.2361  -43.6871 C.2       0 UNK         0.4866 
      3 O          16.5384  -24.4677  -42.7004 O.2       0 UNK        -0.5176 
      4 N          15.9911  -24.8703  -44.8585 N.am      1 UNK        -0.4884 
      5 CA         16.9290  -25.9544  -45.2019 C.3       1 UNK         0.0853 
      6 C6         16.7602  -27.2356  -44.3433 C.3       10 UNK        -0.0849 
      7 S7         15.1560  -28.0658  -44.6176 S.3       10 UNK        -0.2776 
      8 C8         15.5197  -29.2018  -46.0031 C.3       10 UNK         0.0316 
      9 C9         16.7027  -30.1165  -45.7142 C.ar      10 UNK        -0.0863 
     10 C10        16.6042  -31.1130  -44.7386 C.ar      10 UNK        -0.1009 
     11 C11        17.7130  -31.9018  -44.4181 C.ar      10 UNK        -0.0712 
     12 C12        18.9217  -31.7000  -45.0912 C.ar      10 UNK        -0.0894 
     13 C13        19.0276  -30.7161  -46.0788 C.ar      10 UNK        -0.0745 
     14 C14        17.9116  -29.9361  -46.3946 C.ar      10 UNK        -0.0972 
     15 C15        20.3541  -30.4779  -46.7875 C.3       10 UNK         0.0209 
     16 S16        21.0826  -28.8637  -46.3580 S.3       10 UNK        -0.2568 
     17 C17        21.3643  -29.0621  -44.5683 C.3       10 UNK        -0.0983 
     18 CA         21.9506  -27.7888  -43.9135 C.3       3 UNK         0.0876 
     19 N          21.0780  -26.6197  -44.1002 N.am      3 UNK        -0.4424 
     20 C          21.3006  -25.3704  -43.6668 C.2       2 UNK         0.4918 
     21 O          22.2863  -25.0514  -43.0010 O.2       2 UNK        -0.4875 
     22 CA         20.2406  -24.2929  -43.9784 C.3       2 UNK         0.0481 
     23 CB         20.7137  -23.3713  -45.1188 C.3       2 UNK        -0.1831 
     24 N          18.8775  -24.7950  -44.2208 N.am      2 UNK        -0.4498 
     25 C          18.4109  -25.5257  -45.2425 C.2       1 UNK         0.5027 
     26 O          19.1109  -25.8995  -46.1822 O.2       1 UNK        -0.4969 
     27 C          22.3007  -28.0746  -42.4389 C.2       3 UNK         0.5005 
     28 O          23.3952  -28.5649  -42.1688 O.2       3 UNK        -0.5279 
     29 N          21.4039  -27.7116  -41.5082 N.am      4 UNK        -0.4463 
     30 CA         21.5763  -27.8088  -40.0533 C.3       4 UNK         0.0283 
     31 CB         20.3084  -27.2814  -39.3636 C.3       4 UNK        -0.1875 
     32 C          22.8264  -27.0991  -39.4933 C.2       4 UNK         0.4949 
     33 O          23.2879  -27.4682  -38.4138 O.2       4 UNK        -0.5039 
     34 N          23.3643  -26.1169  -40.2304 N.am      5 UNK        -0.4663 
     35 CA         24.6202  -25.4335  -39.9138 C.3       5 UNK         0.0242 
     36 CB         24.6457  -24.0854  -40.6536 C.3       5 UNK        -0.1982 
     37 C          25.8810  -26.2565  -40.2523 C.2       5 UNK         0.5017 
     38 O          26.9699  -25.8572  -39.8363 O.2       5 UNK        -0.5012 
     39 N          25.7382  -27.3563  -41.0051 N.am      6 UNK        -0.4439 
     40 CA         26.8306  -28.2081  -41.4681 C.3       6 UNK         0.0297 
     41 CB         27.2680  -27.7601  -42.8791 C.3       6 UNK        -0.2006 
     42 C          26.3901  -29.6767  -41.3755 C.2       6 UNK         0.4892 
     43 O          26.3429  -30.2188  -40.2695 O.2       6 UNK        -0.5089 
     44 N          26.0820  -30.2995  -42.5217 N.am      7 UNK        -0.4243 
     45 CA         25.5994  -31.6764  -42.6502 C.3       7 UNK         0.0196 
     46 CB         25.8221  -32.1447  -44.1006 C.3       7 UNK        -0.2007 
     47 C          24.1270  -31.8005  -42.2125 C.2       7 UNK         0.5020 
     48 O          23.2391  -31.9455  -43.0551 O.2       7 UNK        -0.5147 
     49 N          23.9015  -31.7045  -40.8971 N.am      8 UNK        -0.4734 
     50 CA         22.5909  -31.7493  -40.2474 C.3       8 UNK         0.0238 
     51 CB         22.7687  -31.4158  -38.7564 C.3       8 UNK        -0.1912 
     52 C          21.8596  -33.0925  -40.4234 C.2       8 UNK         0.5038 
     53 O          22.4930  -34.1227  -40.6675 O.2       8 UNK        -0.5046 
     54 N          20.5312  -33.0411  -40.2748 N.am      9 UNK        -0.4200 
     55 CA         19.5941  -34.1496  -40.5220 C.3       9 UNK         0.0839 
     56 C          19.6854  -35.3447  -39.5284 C.2       9 UNK         0.5513 
     57 N          20.3678  -35.2211  -38.3965 N.am      9 UNK        -0.7519 
     58 O          19.1223  -36.4038  -39.7925 O.2       9 UNK        -0.4960 
     59 C59        18.1274  -33.6471  -40.6348 C.3       10 UNK        -0.0876 
     60 S60        17.9407  -32.1771  -41.7019 S.3       10 UNK        -0.2414 
     61 C61        17.6194  -32.9437  -43.3163 C.3       10 UNK         0.0169 
     62 H62        14.0357  -23.4291  -42.8293 H         1 UNK         0.0903 
     63 H63        15.1940  -22.2066  -43.3595 H         1 UNK         0.0903 
     64 H64        14.2130  -23.0681  -44.5473 H         1 UNK         0.0903 
     65 H65        15.3888  -24.5953  -45.6228 H         1 UNK         0.3096 
     66 H66        16.6867  -26.2238  -46.2316 H         1 UNK         0.1121 
     67 H67        16.8384  -27.0013  -43.2810 H         1 UNK         0.0849 
     68 H68        17.5688  -27.9426  -44.5295 H         1 UNK         0.0849 
     69 H69        14.6363  -29.8096  -46.2040 H         1 UNK         0.0865 
     70 H70        15.6954  -28.6155  -46.9064 H         1 UNK         0.0865 
     71 H71        15.6750  -31.2482  -44.2016 H         1 UNK         0.1346 
     72 H72        19.7858  -32.2961  -44.8300 H         1 UNK         0.1412 
     73 H73        18.0012  -29.1614  -47.1445 H         1 UNK         0.1426 
     74 H74        20.1962  -30.5186  -47.8661 H         1 UNK         0.0716 
     75 H75        21.0706  -31.2664  -46.5517 H         1 UNK         0.0716 
     76 H76        22.0371  -29.9110  -44.4307 H         1 UNK         0.0695 
     77 H77        20.4215  -29.3326  -44.0889 H         1 UNK         0.0695 
     78 H78        22.8936  -27.5553  -44.4123 H         1 UNK         0.0983 
     79 H79        20.2948  -26.7545  -44.7283 H         1 UNK         0.3095 
     80 H80        20.1614  -23.6803  -43.0791 H         1 UNK         0.0454 
     81 H81        21.6677  -22.9048  -44.8696 H         1 UNK         0.0851 
     82 H82        20.0000  -22.5685  -45.3029 H         1 UNK         0.0851 
     83 H83        20.8571  -23.9149  -46.0529 H         1 UNK         0.0851 
     84 H84        18.1958  -24.5785  -43.4946 H         1 UNK         0.2976 
     85 H85        20.5399  -27.3011  -41.8309 H         1 UNK         0.3116 
     86 H86        21.6769  -28.8657  -39.8088 H         1 UNK         0.0646 
     87 H87        20.1308  -26.2304  -39.5949 H         1 UNK         0.0847 
     88 H88        19.4260  -27.8471  -39.6635 H         1 UNK         0.0847 
     89 H89        20.3896  -27.3661  -38.2789 H         1 UNK         0.0847 
     90 H90        22.9258  -25.8701  -41.1113 H         1 UNK         0.3040 
     91 H91        24.6460  -25.2334  -38.8401 H         1 UNK         0.1015 
     92 H92        25.5403  -23.5151  -40.3994 H         1 UNK         0.0786 
     93 H93        23.7850  -23.4705  -40.3899 H         1 UNK         0.0786 
     94 H94        24.6420  -24.2207  -41.7360 H         1 UNK         0.0786 
     95 H95        24.8047  -27.6599  -41.2784 H         1 UNK         0.3172 
     96 H96        27.6892  -28.1095  -40.8006 H         1 UNK         0.0595 
     97 H97        26.4360  -27.7504  -43.5844 H         1 UNK         0.0839 
     98 H98        28.0444  -28.4133  -43.2800 H         1 UNK         0.0839 
     99 H99        27.6839  -26.7526  -42.8537 H         1 UNK         0.0839 
    100 H100       26.1049  -29.7566  -43.3719 H         1 UNK         0.2998 
    101 H101       26.1943  -32.3192  -41.9975 H         1 UNK         0.0822 
    102 H102       25.4805  -33.1720  -44.2343 H         1 UNK         0.0787 
    103 H103       25.2782  -31.5248  -44.8148 H         1 UNK         0.0787 
    104 H104       26.8784  -32.1180  -44.3687 H         1 UNK         0.0787 
    105 H105       24.7013  -31.5110  -40.3048 H         1 UNK         0.3055 
    106 H106       21.9802  -30.9767  -40.7186 H         1 UNK         0.1106 
    107 H107       23.2599  -30.4516  -38.6202 H         1 UNK         0.0828 
    108 H108       21.8071  -31.3608  -38.2446 H         1 UNK         0.0828 
    109 H109       23.3682  -32.1702  -38.2453 H         1 UNK         0.0828 
    110 H110       20.0963  -32.1567  -40.0580 H         1 UNK         0.2931 
    111 H111       19.8653  -34.5590  -41.4972 H         1 UNK         0.0412 
    112 H112       20.4210  -36.0031  -37.7625 H         1 UNK         0.3472 
    113 H113       20.8413  -34.3595  -38.1776 H         1 UNK         0.3472 
    114 H114       17.7447  -33.3823  -39.6472 H         1 UNK         0.0970 
    115 H115       17.4759  -34.4419  -41.0036 H         1 UNK         0.0970 
    116 H116       16.6311  -33.4059  -43.3122 H         1 UNK         0.0612 
    117 H117       18.3404  -33.7436  -43.4921 H         1 UNK         0.0612 
@<TRIPOS>BOND
     1    1    2 1    
     2    1   62 1    
     3    1   63 1    
     4    1   64 1    
     5    2    3 2    
     6    2    4 am   BACKBONE|DICT|INTERRES
     7    4    5 1    
     8    4   65 1    
     9    5    6 1    
    10    5   25 1    
    11    5   66 1    
    12    6    7 1    
    13    6   67 1    
    14    6   68 1    
    15    7    8 1    
    16    8    9 1    
    17    8   69 1    
    18    8   70 1    
    19    9   10 ar   
    20    9   14 ar   
    21   10   11 ar   
    22   10   71 1    
    23   11   12 ar   
    24   11   61 1    
    25   12   13 ar   
    26   12   72 1    
    27   13   14 ar   
    28   13   15 1    
    29   14   73 1    
    30   15   16 1    
    31   15   74 1    
    32   15   75 1    
    33   16   17 1    
    34   17   18 1    
    35   17   76 1    
    36   17   77 1    
    37   18   19 1    
    38   18   27 1    
    39   18   78 1    
    40   19   20 am   BACKBONE|DICT|INTERRES
    41   19   79 1    
    42   20   21 2    
    43   20   22 1    
    44   22   23 1    
    45   22   24 1    
    46   22   80 1    
    47   23   81 1    
    48   23   82 1    
    49   23   83 1    
    50   24   25 am   BACKBONE|DICT|INTERRES
    51   24   84 1    
    52   25   26 2    
    53   27   28 2    
    54   27   29 am   BACKBONE|DICT|INTERRES
    55   29   30 1    
    56   29   85 1    
    57   30   31 1    
    58   30   32 1    
    59   30   86 1    
    60   31   87 1    
    61   31   88 1    
    62   31   89 1    
    63   32   33 2    
    64   32   34 am   BACKBONE|DICT|INTERRES
    65   34   35 1    
    66   34   90 1    
    67   35   36 1    
    68   35   37 1    
    69   35   91 1    
    70   36   92 1    
    71   36   93 1    
    72   36   94 1    
    73   37   38 2    
    74   37   39 am   BACKBONE|DICT|INTERRES
    75   39   40 1    
    76   39   95 1    
    77   40   41 1    
    78   40   42 1    
    79   40   96 1    
    80   41   97 1    
    81   41   98 1    
    82   41   99 1    
    83   42   43 2    
    84   42   44 am   BACKBONE|DICT|INTERRES
    85   44   45 1    
    86   44  100 1    
    87   45   46 1    
    88   45   47 1    
    89   45  101 1    
    90   46  102 1    
    91   46  103 1    
    92   46  104 1    
    93   47   48 2    
    94   47   49 am   BACKBONE|DICT|INTERRES
    95   49   50 1    
    96   49  105 1    
    97   50   51 1    
    98   50   52 1    
    99   50  106 1    
   100   51  107 1    
   101   51  108 1    
   102   51  109 1    
   103   52   53 2    
   104   52   54 am   BACKBONE|DICT|INTERRES
   105   54   55 1    
   106   54  110 1    
   107   55   56 1    
   108   55   59 1    
   109   55  111 1    
   110   56   57 am   BACKBONE|DICT|INTERRES
   111   56   58 2    
   112   57  112 1    
   113   57  113 1    
   114   59   60 1    
   115   59  114 1    
   116   59  115 1    
   117   60   61 1    
   118   61  116 1    
   119   61  117 1    
@<TRIPOS>SUBSTRUCTURE
     1 UNK         1 GROUP             0       ****    0 ROOT    
