@<TRIPOS>MOLECULE
3R8
117   119    1
SMALL
USER_CHARGES


@<TRIPOS>ATOM
      1 CA         20.5760  -25.2240  -49.8744 C.3       0 UNK        -0.2013 
      2 C          21.0085  -25.3255  -48.4194 C.2       0 UNK         0.4866 
      3 O          21.8405  -24.5362  -47.9718 O.2       0 UNK        -0.5176 
      4 N          20.4521  -26.2932  -47.6788 N.am      1 UNK        -0.4884 
      5 CA         20.7588  -26.5493  -46.2654 C.3       1 UNK         0.0853 
      6 C6         20.1418  -27.8830  -45.7750 C.3       10 UNK        -0.0849 
      7 S7         20.7442  -29.3621  -46.6504 S.3       10 UNK        -0.2776 
      8 C8         19.3242  -30.5021  -46.4696 C.3       10 UNK         0.0316 
      9 C9         18.7294  -30.5100  -45.0628 C.ar      10 UNK        -0.0863 
     10 C10        19.5126  -30.8708  -43.9620 C.ar      10 UNK        -0.1009 
     11 C11        18.9810  -30.8402  -42.6688 C.ar      10 UNK        -0.0712 
     12 C12        17.6468  -30.4666  -42.4819 C.ar      10 UNK        -0.0894 
     13 C13        16.8516  -30.1026  -43.5733 C.ar      10 UNK        -0.0745 
     14 C14        17.3969  -30.1331  -44.8609 C.ar      10 UNK        -0.0972 
     15 C15        15.4130  -29.6482  -43.3609 C.3       10 UNK         0.0209 
     16 S16        15.2245  -27.8446  -43.5709 S.3       10 UNK        -0.2568 
     17 C17        16.1344  -27.1899  -42.1284 C.3       10 UNK        -0.0983 
     18 CA         17.6243  -26.9107  -42.4574 C.3       3 UNK         0.0876 
     19 N          17.8198  -25.9726  -43.5649 N.am      3 UNK        -0.4424 
     20 C          17.7608  -24.6338  -43.5607 C.2       2 UNK         0.4918 
     21 O          17.3581  -23.9634  -42.6096 O.2       2 UNK        -0.4875 
     22 CA         18.2877  -23.9332  -44.8381 C.3       2 UNK         0.0481 
     23 CB         19.0240  -22.6170  -44.5136 C.3       2 UNK        -0.1831 
     24 N          19.1269  -24.8054  -45.6832 N.am      2 UNK        -0.4498 
     25 C          20.2628  -25.4327  -45.3253 C.2       1 UNK         0.5027 
     26 O          20.8358  -25.2539  -44.2496 O.2       1 UNK        -0.4969 
     27 C          18.4992  -26.6043  -41.2204 C.2       3 UNK         0.5005 
     28 O          18.0735  -26.8442  -40.0883 O.2       3 UNK        -0.5279 
     29 N          19.7198  -26.0982  -41.4546 N.am      4 UNK        -0.4463 
     30 CA         20.7378  -25.8975  -40.4262 C.3       4 UNK         0.0283 
     31 CB         21.8094  -24.9348  -40.9626 C.3       4 UNK        -0.1875 
     32 C          21.3775  -27.2372  -40.0349 C.2       4 UNK         0.4949 
     33 O          21.6038  -28.0831  -40.9026 O.2       4 UNK        -0.5039 
     34 N          21.7232  -27.3831  -38.7485 N.am      5 UNK        -0.4663 
     35 CA         22.3959  -28.5678  -38.1959 C.3       5 UNK         0.0242 
     36 CB         22.4806  -28.4397  -36.6669 C.3       5 UNK        -0.1982 
     37 C          23.7922  -28.8212  -38.7938 C.2       5 UNK         0.5017 
     38 O          24.2280  -29.9712  -38.8496 O.2       5 UNK        -0.5012 
     39 N          24.4382  -27.7508  -39.2799 N.am      6 UNK        -0.4439 
     40 CA         25.7168  -27.7594  -39.9960 C.3       6 UNK         0.0297 
     41 CB         26.1422  -26.3083  -40.2741 C.3       6 UNK        -0.2006 
     42 C          25.7130  -28.5760  -41.3039 C.2       6 UNK         0.4892 
     43 O          26.7883  -28.9671  -41.7591 O.2       6 UNK        -0.5089 
     44 N          24.5264  -28.8413  -41.8741 N.am      7 UNK        -0.4243 
     45 CA         24.3462  -29.7330  -43.0232 C.3       7 UNK         0.0196 
     46 CB         22.9804  -29.4580  -43.6695 C.3       7 UNK        -0.2007 
     47 C          24.5114  -31.2276  -42.6744 C.2       7 UNK         0.5020 
     48 O          24.6691  -32.0317  -43.5929 O.2       7 UNK        -0.5147 
     49 N          24.4999  -31.5698  -41.3741 N.am      8 UNK        -0.4734 
     50 CA         24.7917  -32.8883  -40.7945 C.3       8 UNK         0.0238 
     51 CB         26.2837  -33.2374  -40.9840 C.3       8 UNK        -0.1912 
     52 C          23.8475  -34.0061  -41.2792 C.2       8 UNK         0.5038 
     53 O          24.3063  -35.0962  -41.6275 O.2       8 UNK        -0.5046 
     54 N          22.5411  -33.7137  -41.2851 N.am      9 UNK        -0.4200 
     55 CA         21.4716  -34.6583  -41.6493 C.3       9 UNK         0.0839 
     56 C          21.1891  -35.7814  -40.6067 C.2       9 UNK         0.5513 
     57 N          21.7283  -35.7201  -39.3946 N.am      9 UNK        -0.7519 
     58 O          20.4763  -36.7344  -40.9113 O.2       9 UNK        -0.4960 
     59 C59        20.1772  -33.9209  -42.0810 C.3       10 UNK        -0.0876 
     60 S60        19.4841  -32.8231  -40.7926 S.3       10 UNK        -0.2414 
     61 C61        19.8527  -31.1745  -41.4666 C.3       10 UNK         0.0169 
     62 H62        19.8401  -25.9842  -50.1360 H         1 UNK         0.0903 
     63 H63        20.1366  -24.2458  -50.0679 H         1 UNK         0.0903 
     64 H64        21.4372  -25.3465  -50.5308 H         1 UNK         0.0903 
     65 H65        19.8044  -26.9385  -48.1096 H         1 UNK         0.3096 
     66 H66        21.8446  -26.6048  -46.1570 H         1 UNK         0.1121 
     67 H67        20.3513  -28.0384  -44.7136 H         1 UNK         0.0849 
     68 H68        19.0549  -27.8475  -45.8704 H         1 UNK         0.0849 
     69 H69        18.5660  -30.2287  -47.2051 H         1 UNK         0.0865 
     70 H70        19.6460  -31.5121  -46.7268 H         1 UNK         0.0865 
     71 H71        20.5447  -31.1535  -44.1155 H         1 UNK         0.1346 
     72 H72        17.2369  -30.4377  -41.4815 H         1 UNK         0.1412 
     73 H73        16.7833  -29.8421  -45.7029 H         1 UNK         0.1426 
     74 H74        15.0527  -29.9395  -42.3731 H         1 UNK         0.0716 
     75 H75        14.7682  -30.1545  -44.0807 H         1 UNK         0.0716 
     76 H76        16.0385  -27.9055  -41.3100 H         1 UNK         0.0695 
     77 H77        15.6447  -26.2741  -41.7936 H         1 UNK         0.0695 
     78 H78        18.0536  -27.8386  -42.8282 H         1 UNK         0.0983 
     79 H79        18.1097  -26.4005  -44.4293 H         1 UNK         0.3095 
     80 H80        17.4085  -23.6848  -45.4339 H         1 UNK         0.0454 
     81 H81        18.3592  -21.9076  -44.0194 H         1 UNK         0.0851 
     82 H82        19.3934  -22.1352  -45.4187 H         1 UNK         0.0851 
     83 H83        19.8736  -22.7798  -43.8497 H         1 UNK         0.0851 
     84 H84        18.7460  -25.0273  -46.5933 H         1 UNK         0.2976 
     85 H85        20.0133  -25.9333  -42.4111 H         1 UNK         0.3116 
     86 H86        20.2693  -25.4476  -39.5482 H         1 UNK         0.0646 
     87 H87        21.3718  -23.9831  -41.2650 H         1 UNK         0.0847 
     88 H88        22.3295  -25.3506  -41.8271 H         1 UNK         0.0847 
     89 H89        22.5606  -24.7185  -40.2022 H         1 UNK         0.0847 
     90 H90        21.5061  -26.6406  -38.0981 H         1 UNK         0.3040 
     91 H91        21.7822  -29.4394  -38.4355 H         1 UNK         0.1015 
     92 H92        22.9554  -29.3185  -36.2276 H         1 UNK         0.0786 
     93 H93        21.4900  -28.3530  -36.2199 H         1 UNK         0.0786 
     94 H94        23.0643  -27.5691  -36.3650 H         1 UNK         0.0786 
     95 H95        23.9848  -26.8548  -39.1786 H         1 UNK         0.3172 
     96 H96        26.4575  -28.2139  -39.3349 H         1 UNK         0.0595 
     97 H97        27.1087  -26.2747  -40.7793 H         1 UNK         0.0839 
     98 H98        26.2440  -25.7383  -39.3504 H         1 UNK         0.0839 
     99 H99        25.4240  -25.7919  -40.9126 H         1 UNK         0.0839 
    100 H100       23.6805  -28.4839  -41.4442 H         1 UNK         0.2998 
    101 H101       25.1155  -29.4951  -43.7611 H         1 UNK         0.0822 
    102 H102       22.8217  -30.1029  -44.5345 H         1 UNK         0.0787 
    103 H103       22.9065  -28.4274  -44.0171 H         1 UNK         0.0787 
    104 H104       22.1607  -29.6324  -42.9751 H         1 UNK         0.0787 
    105 H105       24.3567  -30.8323  -40.6908 H         1 UNK         0.3055 
    106 H106       24.6162  -32.7934  -39.7214 H         1 UNK         0.1106 
    107 H107       26.9274  -32.4474  -40.5969 H         1 UNK         0.0828 
    108 H108       26.5427  -34.1541  -40.4527 H         1 UNK         0.0828 
    109 H109       26.5340  -33.3888  -42.0346 H         1 UNK         0.0828 
    110 H110       22.2422  -32.8036  -40.9696 H         1 UNK         0.2931 
    111 H111       21.8229  -35.1882  -42.5372 H         1 UNK         0.0412 
    112 H112       21.5407  -36.4572  -38.7330 H         1 UNK         0.3472 
    113 H113       22.3081  -34.9406  -39.1305 H         1 UNK         0.3472 
    114 H114       19.4060  -34.6372  -42.3705 H         1 UNK         0.0970 
    115 H115       20.3798  -33.3465  -42.9844 H         1 UNK         0.0970 
    116 H116       20.9111  -31.1181  -41.7213 H         1 UNK         0.0612 
    117 H117       19.6900  -30.4288  -40.6866 H         1 UNK         0.0612 
@<TRIPOS>BOND
     1    1    2 1    
     2    1   62 1    
     3    1   63 1    
     4    1   64 1    
     5    2    3 2    
     6    2    4 am   BACKBONE|DICT|INTERRES
     7    4    5 1    
     8    4   65 1    
     9    5    6 1    
    10    5   25 1    
    11    5   66 1    
    12    6    7 1    
    13    6   67 1    
    14    6   68 1    
    15    7    8 1    
    16    8    9 1    
    17    8   69 1    
    18    8   70 1    
    19    9   10 ar   
    20    9   14 ar   
    21   10   11 ar   
    22   10   71 1    
    23   11   12 ar   
    24   11   61 1    
    25   12   13 ar   
    26   12   72 1    
    27   13   14 ar   
    28   13   15 1    
    29   14   73 1    
    30   15   16 1    
    31   15   74 1    
    32   15   75 1    
    33   16   17 1    
    34   17   18 1    
    35   17   76 1    
    36   17   77 1    
    37   18   19 1    
    38   18   27 1    
    39   18   78 1    
    40   19   20 am   BACKBONE|DICT|INTERRES
    41   19   79 1    
    42   20   21 2    
    43   20   22 1    
    44   22   23 1    
    45   22   24 1    
    46   22   80 1    
    47   23   81 1    
    48   23   82 1    
    49   23   83 1    
    50   24   25 am   BACKBONE|DICT|INTERRES
    51   24   84 1    
    52   25   26 2    
    53   27   28 2    
    54   27   29 am   BACKBONE|DICT|INTERRES
    55   29   30 1    
    56   29   85 1    
    57   30   31 1    
    58   30   32 1    
    59   30   86 1    
    60   31   87 1    
    61   31   88 1    
    62   31   89 1    
    63   32   33 2    
    64   32   34 am   BACKBONE|DICT|INTERRES
    65   34   35 1    
    66   34   90 1    
    67   35   36 1    
    68   35   37 1    
    69   35   91 1    
    70   36   92 1    
    71   36   93 1    
    72   36   94 1    
    73   37   38 2    
    74   37   39 am   BACKBONE|DICT|INTERRES
    75   39   40 1    
    76   39   95 1    
    77   40   41 1    
    78   40   42 1    
    79   40   96 1    
    80   41   97 1    
    81   41   98 1    
    82   41   99 1    
    83   42   43 2    
    84   42   44 am   BACKBONE|DICT|INTERRES
    85   44   45 1    
    86   44  100 1    
    87   45   46 1    
    88   45   47 1    
    89   45  101 1    
    90   46  102 1    
    91   46  103 1    
    92   46  104 1    
    93   47   48 2    
    94   47   49 am   BACKBONE|DICT|INTERRES
    95   49   50 1    
    96   49  105 1    
    97   50   51 1    
    98   50   52 1    
    99   50  106 1    
   100   51  107 1    
   101   51  108 1    
   102   51  109 1    
   103   52   53 2    
   104   52   54 am   BACKBONE|DICT|INTERRES
   105   54   55 1    
   106   54  110 1    
   107   55   56 1    
   108   55   59 1    
   109   55  111 1    
   110   56   57 am   BACKBONE|DICT|INTERRES
   111   56   58 2    
   112   57  112 1    
   113   57  113 1    
   114   59   60 1    
   115   59  114 1    
   116   59  115 1    
   117   60   61 1    
   118   61  116 1    
   119   61  117 1    
@<TRIPOS>SUBSTRUCTURE
     1 UNK         1 GROUP             0       ****    0 ROOT    
