@<TRIPOS>MOLECULE
3R8
117   119    1
SMALL
USER_CHARGES


@<TRIPOS>ATOM
      1 CA         22.6144  -23.6412  -41.2653 C.3       0 UNK        -0.2013 
      2 C          21.1154  -23.8782  -41.1792 C.2       0 UNK         0.4866 
      3 O          20.4172  -23.1002  -40.5276 O.2       0 UNK        -0.5176 
      4 N          20.6188  -24.9352  -41.8318 N.am      1 UNK        -0.4884 
      5 CA         19.1909  -25.2399  -41.9689 C.3       1 UNK         0.0853 
      6 C6         18.8526  -26.6766  -41.4766 C.3       10 UNK        -0.0849 
      7 S7         19.6241  -28.0007  -42.4654 S.3       10 UNK        -0.2776 
      8 C8         18.2223  -29.1011  -42.8221 C.3       10 UNK         0.0316 
      9 C9         18.6164  -30.1034  -43.8923 C.ar      10 UNK        -0.0863 
     10 C10        19.1079  -31.3643  -43.5399 C.ar      10 UNK        -0.1009 
     11 C11        19.5034  -32.2782  -44.5281 C.ar      10 UNK        -0.0712 
     12 C12        19.4018  -31.9046  -45.8726 C.ar      10 UNK        -0.0894 
     13 C13        18.9050  -30.6494  -46.2354 C.ar      10 UNK        -0.0745 
     14 C14        18.5036  -29.7585  -45.2407 C.ar      10 UNK        -0.0972 
     15 C15        18.7970  -30.2618  -47.7014 C.3       10 UNK         0.0209 
     16 S16        20.3321  -29.4768  -48.2832 S.3       10 UNK        -0.2568 
     17 C17        19.8840  -27.7028  -48.3732 C.3       10 UNK        -0.0983 
     18 CA         20.3181  -26.7555  -47.2064 C.3       3 UNK         0.0876 
     19 N          19.2711  -26.5045  -46.2111 N.am      3 UNK        -0.4424 
     20 C          18.1773  -25.7663  -46.4509 C.2       2 UNK         0.4918 
     21 O          17.9093  -25.2886  -47.5540 O.2       2 UNK        -0.4875 
     22 CA         17.2050  -25.4978  -45.2844 C.3       2 UNK         0.0481 
     23 CB         15.9524  -26.3805  -45.4129 C.3       2 UNK        -0.1831 
     24 N          17.7790  -25.6686  -43.9468 N.am      2 UNK        -0.4498 
     25 C          18.7406  -24.9042  -43.4099 C.2       1 UNK         0.5027 
     26 O          19.2570  -23.9571  -44.0089 O.2       1 UNK        -0.4969 
     27 C          21.6555  -27.1090  -46.5306 C.2       3 UNK         0.5005 
     28 O          22.6866  -26.5533  -46.9156 O.2       3 UNK        -0.5279 
     29 N          21.6250  -28.0125  -45.5394 N.am      4 UNK        -0.4463 
     30 CA         22.8057  -28.4543  -44.7957 C.3       4 UNK         0.0283 
     31 CB         22.4970  -29.7972  -44.1128 C.3       4 UNK        -0.1875 
     32 C          23.2822  -27.4052  -43.7752 C.2       4 UNK         0.4949 
     33 O          22.5361  -26.4909  -43.4156 O.2       4 UNK        -0.5039 
     34 N          24.5274  -27.5775  -43.3119 N.am      5 UNK        -0.4663 
     35 CA         25.2009  -26.7017  -42.3448 C.3       5 UNK         0.0242 
     36 CB         26.7003  -27.0425  -42.3259 C.3       5 UNK        -0.1982 
     37 C          24.6201  -26.7598  -40.9186 C.2       5 UNK         0.5017 
     38 O          24.8943  -25.8599  -40.1245 O.2       5 UNK        -0.5012 
     39 N          23.8375  -27.7996  -40.6181 N.am      6 UNK        -0.4439 
     40 CA         23.1008  -27.9972  -39.3776 C.3       6 UNK         0.0297 
     41 CB         24.0333  -28.5486  -38.2829 C.3       6 UNK        -0.2006 
     42 C          21.9642  -28.9786  -39.6707 C.2       6 UNK         0.4892 
     43 O          22.0898  -29.7894  -40.5922 O.2       6 UNK        -0.5089 
     44 N          20.8976  -28.9107  -38.8618 N.am      7 UNK        -0.4243 
     45 CA         19.7315  -29.7974  -38.9519 C.3       7 UNK         0.0196 
     46 CB         18.6146  -29.2751  -38.0353 C.3       7 UNK        -0.2007 
     47 C          20.0584  -31.2673  -38.6357 C.2       7 UNK         0.5020 
     48 O          19.4260  -32.1634  -39.1944 O.2       7 UNK        -0.5147 
     49 N          21.0756  -31.4949  -37.7932 N.am      8 UNK        -0.4734 
     50 CA         21.6978  -32.7989  -37.5503 C.3       8 UNK         0.0238 
     51 CB         22.3469  -32.7902  -36.1533 C.3       8 UNK        -0.1912 
     52 C          22.7026  -33.1275  -38.6735 C.2       8 UNK         0.5038 
     53 O          23.8998  -33.2687  -38.4154 O.2       8 UNK        -0.5046 
     54 N          22.1928  -33.1846  -39.9076 N.am      9 UNK        -0.4200 
     55 CA         22.9371  -33.4359  -41.1455 C.3       9 UNK         0.0839 
     56 C          23.5498  -34.8625  -41.2336 C.2       9 UNK         0.5513 
     57 N          24.5792  -35.0398  -42.0512 N.am      9 UNK        -0.7519 
     58 O          23.0933  -35.8099  -40.5958 O.2       9 UNK        -0.4960 
     59 C59        22.0744  -33.0773  -42.3849 C.3       10 UNK        -0.0876 
     60 S60        20.4992  -33.9982  -42.4801 S.3       10 UNK        -0.2414 
     61 C61        20.0097  -33.6881  -44.2106 C.3       10 UNK         0.0169 
     62 H62        23.0868  -24.2961  -41.9955 H         1 UNK         0.0903 
     63 H63        22.8161  -22.6118  -41.5598 H         1 UNK         0.0903 
     64 H64        23.0779  -23.8155  -40.2949 H         1 UNK         0.0903 
     65 H65        21.2413  -25.5246  -42.3834 H         1 UNK         0.3096 
     66 H66        18.6128  -24.5600  -41.3395 H         1 UNK         0.1121 
     67 H67        19.1988  -26.7933  -40.4485 H         1 UNK         0.0849 
     68 H68        17.7724  -26.8224  -41.4275 H         1 UNK         0.0849 
     69 H69        17.9148  -29.6136  -41.9095 H         1 UNK         0.0865 
     70 H70        17.3595  -28.5252  -43.1575 H         1 UNK         0.0865 
     71 H71        19.1790  -31.6214  -42.4924 H         1 UNK         0.1346 
     72 H72        19.7050  -32.5986  -46.6449 H         1 UNK         0.1412 
     73 H73        18.1085  -28.7942  -45.5198 H         1 UNK         0.1426 
     74 H74        17.9394  -29.6071  -47.8614 H         1 UNK         0.0716 
     75 H75        18.6110  -31.1516  -48.3046 H         1 UNK         0.0716 
     76 H76        18.8171  -27.6108  -48.5772 H         1 UNK         0.0695 
     77 H77        20.3603  -27.3395  -49.2852 H         1 UNK         0.0695 
     78 H78        20.5041  -25.7810  -47.6658 H         1 UNK         0.0983 
     79 H79        19.4702  -26.7846  -45.2615 H         1 UNK         0.3095 
     80 H80        16.8875  -24.4565  -45.3712 H         1 UNK         0.0454 
     81 H81        15.4847  -26.2546  -46.3906 H         1 UNK         0.0851 
     82 H82        15.2033  -26.1177  -44.6658 H         1 UNK         0.0851 
     83 H83        16.1825  -27.4395  -45.2990 H         1 UNK         0.0851 
     84 H84        17.4024  -26.4190  -43.3883 H         1 UNK         0.2976 
     85 H85        20.7526  -28.4571  -45.2937 H         1 UNK         0.3116 
     86 H86        23.6139  -28.6186  -45.5118 H         1 UNK         0.0646 
     87 H87        22.1570  -30.5414  -44.8336 H         1 UNK         0.0847 
     88 H88        21.7250  -29.6990  -43.3510 H         1 UNK         0.0847 
     89 H89        23.3806  -30.2056  -43.6217 H         1 UNK         0.0847 
     90 H90        25.0676  -28.3572  -43.6596 H         1 UNK         0.3040 
     91 H91        25.0893  -25.6723  -42.6920 H         1 UNK         0.1015 
     92 H92        27.2421  -26.3857  -41.6435 H         1 UNK         0.0786 
     93 H93        27.1488  -26.9202  -43.3120 H         1 UNK         0.0786 
     94 H94        26.8772  -28.0680  -41.9990 H         1 UNK         0.0786 
     95 H95        23.6219  -28.4845  -41.3329 H         1 UNK         0.3172 
     96 H96        22.6720  -27.0440  -39.0605 H         1 UNK         0.0595 
     97 H97        24.4649  -29.5087  -38.5697 H         1 UNK         0.0839 
     98 H98        23.4953  -28.6986  -37.3462 H         1 UNK         0.0839 
     99 H99        24.8542  -27.8623  -38.0748 H         1 UNK         0.0839 
    100 H100       20.8829  -28.2148  -38.1298 H         1 UNK         0.2998 
    101 H101       19.3725  -29.7653  -39.9818 H         1 UNK         0.0822 
    102 H102       18.3127  -28.2652  -38.3136 H         1 UNK         0.0787 
    103 H103       17.7277  -29.9067  -38.1043 H         1 UNK         0.0787 
    104 H104       18.9234  -29.2595  -36.9894 H         1 UNK         0.0787 
    105 H105       21.5518  -30.6930  -37.4074 H         1 UNK         0.3055 
    106 H106       20.9301  -33.5764  -37.5600 H         1 UNK         0.1106 
    107 H107       21.6096  -32.5937  -35.3748 H         1 UNK         0.0828 
    108 H108       22.8024  -33.7558  -35.9293 H         1 UNK         0.0828 
    109 H109       23.1291  -32.0342  -36.0736 H         1 UNK         0.0828 
    110 H110       21.1952  -33.0477  -40.0164 H         1 UNK         0.2931 
    111 H111       23.7784  -32.7398  -41.1326 H         1 UNK         0.0412 
    112 H112       24.9644  -34.2737  -42.5815 H         1 UNK         0.3472 
    113 H113       24.9866  -35.9585  -42.1327 H         1 UNK         0.3472 
    114 H114       21.8355  -32.0133  -42.3583 H         1 UNK         0.0970 
    115 H115       22.6418  -33.2300  -43.3045 H         1 UNK         0.0970 
    116 H116       20.8535  -33.9307  -44.8583 H         1 UNK         0.0612 
    117 H117       19.2173  -34.3936  -44.4635 H         1 UNK         0.0612 
@<TRIPOS>BOND
     1    1    2 1    
     2    1   62 1    
     3    1   63 1    
     4    1   64 1    
     5    2    3 2    
     6    2    4 am   BACKBONE|DICT|INTERRES
     7    4    5 1    
     8    4   65 1    
     9    5    6 1    
    10    5   25 1    
    11    5   66 1    
    12    6    7 1    
    13    6   67 1    
    14    6   68 1    
    15    7    8 1    
    16    8    9 1    
    17    8   69 1    
    18    8   70 1    
    19    9   10 ar   
    20    9   14 ar   
    21   10   11 ar   
    22   10   71 1    
    23   11   12 ar   
    24   11   61 1    
    25   12   13 ar   
    26   12   72 1    
    27   13   14 ar   
    28   13   15 1    
    29   14   73 1    
    30   15   16 1    
    31   15   74 1    
    32   15   75 1    
    33   16   17 1    
    34   17   18 1    
    35   17   76 1    
    36   17   77 1    
    37   18   19 1    
    38   18   27 1    
    39   18   78 1    
    40   19   20 am   BACKBONE|DICT|INTERRES
    41   19   79 1    
    42   20   21 2    
    43   20   22 1    
    44   22   23 1    
    45   22   24 1    
    46   22   80 1    
    47   23   81 1    
    48   23   82 1    
    49   23   83 1    
    50   24   25 am   BACKBONE|DICT|INTERRES
    51   24   84 1    
    52   25   26 2    
    53   27   28 2    
    54   27   29 am   BACKBONE|DICT|INTERRES
    55   29   30 1    
    56   29   85 1    
    57   30   31 1    
    58   30   32 1    
    59   30   86 1    
    60   31   87 1    
    61   31   88 1    
    62   31   89 1    
    63   32   33 2    
    64   32   34 am   BACKBONE|DICT|INTERRES
    65   34   35 1    
    66   34   90 1    
    67   35   36 1    
    68   35   37 1    
    69   35   91 1    
    70   36   92 1    
    71   36   93 1    
    72   36   94 1    
    73   37   38 2    
    74   37   39 am   BACKBONE|DICT|INTERRES
    75   39   40 1    
    76   39   95 1    
    77   40   41 1    
    78   40   42 1    
    79   40   96 1    
    80   41   97 1    
    81   41   98 1    
    82   41   99 1    
    83   42   43 2    
    84   42   44 am   BACKBONE|DICT|INTERRES
    85   44   45 1    
    86   44  100 1    
    87   45   46 1    
    88   45   47 1    
    89   45  101 1    
    90   46  102 1    
    91   46  103 1    
    92   46  104 1    
    93   47   48 2    
    94   47   49 am   BACKBONE|DICT|INTERRES
    95   49   50 1    
    96   49  105 1    
    97   50   51 1    
    98   50   52 1    
    99   50  106 1    
   100   51  107 1    
   101   51  108 1    
   102   51  109 1    
   103   52   53 2    
   104   52   54 am   BACKBONE|DICT|INTERRES
   105   54   55 1    
   106   54  110 1    
   107   55   56 1    
   108   55   59 1    
   109   55  111 1    
   110   56   57 am   BACKBONE|DICT|INTERRES
   111   56   58 2    
   112   57  112 1    
   113   57  113 1    
   114   59   60 1    
   115   59  114 1    
   116   59  115 1    
   117   60   61 1    
   118   61  116 1    
   119   61  117 1    
@<TRIPOS>SUBSTRUCTURE
     1 UNK         1 GROUP             0       ****    0 ROOT    
