@<TRIPOS>MOLECULE
3R8
117   119    1
SMALL
USER_CHARGES


@<TRIPOS>ATOM
      1 CA         17.3258  -28.7961  -39.8869 C.3       0 UNK        -0.2013 
      2 C          17.4976  -27.5080  -40.6762 C.2       0 UNK         0.4866 
      3 O          17.1983  -26.4310  -40.1583 O.2       0 UNK        -0.5176 
      4 N          17.9604  -27.6142  -41.9274 N.am      1 UNK        -0.4884 
      5 CA         18.1719  -26.4861  -42.8415 C.3       1 UNK         0.0853 
      6 C6         17.2400  -26.5156  -44.0862 C.3       10 UNK        -0.0849 
      7 S7         15.4877  -26.8760  -43.6961 S.3       10 UNK        -0.2776 
      8 C8         15.0012  -28.0865  -44.9785 C.3       10 UNK         0.0316 
      9 C9         16.0273  -29.1932  -45.2003 C.ar      10 UNK        -0.0863 
     10 C10        16.3785  -30.0616  -44.1627 C.ar      10 UNK        -0.1009 
     11 C11        17.3530  -31.0452  -44.3600 C.ar      10 UNK        -0.0712 
     12 C12        17.9651  -31.1694  -45.6120 C.ar      10 UNK        -0.0894 
     13 C13        17.6101  -30.3173  -46.6629 C.ar      10 UNK        -0.0745 
     14 C14        16.6416  -29.3322  -46.4490 C.ar      10 UNK        -0.0972 
     15 C15        18.2520  -30.4671  -48.0380 C.3       10 UNK         0.0209 
     16 S16        20.0331  -30.0777  -48.0497 S.3       10 UNK        -0.2568 
     17 C17        20.0597  -28.3192  -47.5348 C.3       10 UNK        -0.0983 
     18 CA         21.3929  -27.7389  -46.9602 C.3       3 UNK         0.0876 
     19 N          21.1036  -26.6702  -46.0006 N.am      3 UNK        -0.4424 
     20 C          21.9981  -25.8668  -45.4117 C.2       2 UNK         0.4918 
     21 O          23.1595  -25.7434  -45.8015 O.2       2 UNK        -0.4875 
     22 CA         21.5325  -25.0841  -44.1623 C.3       2 UNK         0.0481 
     23 CB         21.7191  -23.5710  -44.3655 C.3       2 UNK        -0.1831 
     24 N          20.1521  -25.3335  -43.7113 N.am      2 UNK        -0.4498 
     25 C          19.6406  -26.5021  -43.2941 C.2       1 UNK         0.5027 
     26 O          20.2575  -27.5704  -43.3276 O.2       1 UNK        -0.4969 
     27 C          22.3440  -28.7918  -46.3360 C.2       3 UNK         0.5005 
     28 O          23.2726  -29.2455  -47.0092 O.2       3 UNK        -0.5279 
     29 N          22.1101  -29.1398  -45.0624 N.am      4 UNK        -0.4463 
     30 CA         22.9495  -30.0514  -44.2903 C.3       4 UNK         0.0283 
     31 CB         22.0823  -30.7411  -43.2306 C.3       4 UNK        -0.1875 
     32 C          24.1069  -29.2993  -43.6198 C.2       4 UNK         0.4949 
     33 O          23.9908  -28.1028  -43.3409 O.2       4 UNK        -0.5039 
     34 N          25.1879  -30.0352  -43.3261 N.am      5 UNK        -0.4663 
     35 CA         26.3741  -29.5514  -42.6132 C.3       5 UNK         0.0242 
     36 CB         27.3966  -30.6926  -42.4897 C.3       5 UNK        -0.1982 
     37 C          26.0092  -28.9949  -41.2273 C.2       5 UNK         0.5017 
     38 O          25.3956  -29.7103  -40.4317 O.2       5 UNK        -0.5012 
     39 N          26.3307  -27.7121  -41.0020 N.am      6 UNK        -0.4439 
     40 CA         26.0000  -26.9077  -39.8149 C.3       6 UNK         0.0297 
     41 CB         26.7894  -27.4148  -38.5889 C.3       6 UNK        -0.2006 
     42 C          24.4859  -26.7957  -39.5211 C.2       6 UNK         0.4892 
     43 O          24.1166  -26.4651  -38.3933 O.2       6 UNK        -0.5089 
     44 N          23.6433  -27.0927  -40.5250 N.am      7 UNK        -0.4243 
     45 CA         22.1871  -27.2483  -40.4517 C.3       7 UNK         0.0196 
     46 CB         21.4981  -25.8906  -40.1955 C.3       7 UNK        -0.2007 
     47 C          21.7301  -28.3494  -39.4709 C.2       7 UNK         0.5020 
     48 O          20.6397  -28.2462  -38.9087 O.2       7 UNK        -0.5147 
     49 N          22.5701  -29.3740  -39.2562 N.am      8 UNK        -0.4734 
     50 CA         22.3212  -30.4357  -38.2776 C.3       8 UNK         0.0238 
     51 CB         23.6445  -31.1428  -37.9424 C.3       8 UNK        -0.1912 
     52 C          21.2643  -31.4530  -38.7356 C.2       8 UNK         0.5038 
     53 O          20.4394  -31.8667  -37.9193 O.2       8 UNK        -0.5046 
     54 N          21.3223  -31.8398  -40.0186 N.am      9 UNK        -0.4200 
     55 CA         20.5126  -32.9022  -40.6461 C.3       9 UNK         0.0839 
     56 C          20.7451  -34.3116  -40.0122 C.2       9 UNK         0.5513 
     57 N          19.9240  -35.3028  -40.3348 N.am      9 UNK        -0.7519 
     58 O          21.7027  -34.5421  -39.2758 O.2       9 UNK        -0.4960 
     59 C59        19.0121  -32.5020  -40.7814 C.3       10 UNK        -0.0876 
     60 S60        18.7733  -31.1530  -41.9875 S.3       10 UNK        -0.2414 
     61 C61        17.7277  -31.9824  -43.2231 C.3       10 UNK         0.0169 
     62 H62        16.8379  -28.6033  -38.9318 H         1 UNK         0.0903 
     63 H63        16.7132  -29.5072  -40.4405 H         1 UNK         0.0903 
     64 H64        18.2936  -29.2534  -39.6840 H         1 UNK         0.0903 
     65 H65        18.2627  -28.5126  -42.2837 H         1 UNK         0.3096 
     66 H66        18.0039  -25.5457  -42.3121 H         1 UNK         0.1121 
     67 H67        17.2701  -25.5504  -44.5949 H         1 UNK         0.0849 
     68 H68        17.6102  -27.2339  -44.8166 H         1 UNK         0.0849 
     69 H69        14.0490  -28.5365  -44.6950 H         1 UNK         0.0865 
     70 H70        14.8141  -27.5447  -45.9070 H         1 UNK         0.0865 
     71 H71        15.9082  -29.9572  -43.1942 H         1 UNK         0.1346 
     72 H72        18.7174  -31.9295  -45.7729 H         1 UNK         0.1412 
     73 H73        16.3706  -28.6662  -47.2571 H         1 UNK         0.1426 
     74 H74        17.7508  -29.8347  -48.7725 H         1 UNK         0.0716 
     75 H75        18.1172  -31.4941  -48.3801 H         1 UNK         0.0716 
     76 H76        19.2751  -28.2069  -46.7863 H         1 UNK         0.0695 
     77 H77        19.7350  -27.7127  -48.3816 H         1 UNK         0.0695 
     78 H78        21.9429  -27.2887  -47.7894 H         1 UNK         0.0983 
     79 H79        20.1807  -26.6859  -45.5966 H         1 UNK         0.3095 
     80 H80        22.1927  -25.3970  -43.3510 H         1 UNK         0.0454 
     81 H81        22.7469  -23.3340  -44.6440 H         1 UNK         0.0851 
     82 H82        21.5022  -23.0167  -43.4523 H         1 UNK         0.0851 
     83 H83        21.0721  -23.1880  -45.1554 H         1 UNK         0.0851 
     84 H84        19.5553  -24.5185  -43.6850 H         1 UNK         0.2976 
     85 H85        21.3866  -28.6504  -44.5430 H         1 UNK         0.3116 
     86 H86        23.3601  -30.8166  -44.9528 H         1 UNK         0.0646 
     87 H87        21.6452  -30.0217  -42.5363 H         1 UNK         0.0847 
     88 H88        21.2670  -31.2971  -43.6938 H         1 UNK         0.0847 
     89 H89        22.6702  -31.4519  -42.6498 H         1 UNK         0.0847 
     90 H90        25.1816  -31.0167  -43.5638 H         1 UNK         0.3040 
     91 H91        26.8182  -28.7555  -43.2149 H         1 UNK         0.1015 
     92 H92        28.2976  -30.3546  -41.9758 H         1 UNK         0.0786 
     93 H93        27.7028  -31.0611  -43.4691 H         1 UNK         0.0786 
     94 H94        26.9958  -31.5345  -41.9233 H         1 UNK         0.0786 
     95 H95        26.8022  -27.2078  -41.7411 H         1 UNK         0.3172 
     96 H96        26.3390  -25.8936  -40.0313 H         1 UNK         0.0595 
     97 H97        26.4509  -28.4015  -38.2706 H         1 UNK         0.0839 
     98 H98        26.6711  -26.7421  -37.7385 H         1 UNK         0.0839 
     99 H99        27.8566  -27.4785  -38.8011 H         1 UNK         0.0839 
    100 H100       24.0461  -27.3500  -41.4212 H         1 UNK         0.2998 
    101 H101       21.8880  -27.5962  -41.4382 H         1 UNK         0.0822 
    102 H102       20.4145  -25.9794  -40.2826 H         1 UNK         0.0787 
    103 H103       21.8193  -25.1387  -40.9157 H         1 UNK         0.0787 
    104 H104       21.7120  -25.5117  -39.1959 H         1 UNK         0.0787 
    105 H105       23.4698  -29.3856  -39.7273 H         1 UNK         0.3055 
    106 H106       21.9495  -29.9716  -37.3608 H         1 UNK         0.1106 
    107 H107       24.3789  -30.4419  -37.5448 H         1 UNK         0.0828 
    108 H108       23.4933  -31.9177  -37.1895 H         1 UNK         0.0828 
    109 H109       24.0820  -31.6218  -38.8193 H         1 UNK         0.0828 
    110 H110       22.0505  -31.4448  -40.5916 H         1 UNK         0.2931 
    111 H111       20.9149  -33.0060  -41.6541 H         1 UNK         0.0412 
    112 H112       20.0901  -36.2171  -39.9429 H         1 UNK         0.3472 
    113 H113       19.1548  -35.1664  -40.9708 H         1 UNK         0.3472 
    114 H114       18.3981  -33.3458  -41.0948 H         1 UNK         0.0970 
    115 H115       18.6032  -32.1899  -39.8196 H         1 UNK         0.0970 
    116 H116       18.2526  -32.8590  -43.6062 H         1 UNK         0.0612 
    117 H117       16.8190  -32.3473  -42.7419 H         1 UNK         0.0612 
@<TRIPOS>BOND
     1    1    2 1    
     2    1   62 1    
     3    1   63 1    
     4    1   64 1    
     5    2    3 2    
     6    2    4 am   BACKBONE|DICT|INTERRES
     7    4    5 1    
     8    4   65 1    
     9    5    6 1    
    10    5   25 1    
    11    5   66 1    
    12    6    7 1    
    13    6   67 1    
    14    6   68 1    
    15    7    8 1    
    16    8    9 1    
    17    8   69 1    
    18    8   70 1    
    19    9   10 ar   
    20    9   14 ar   
    21   10   11 ar   
    22   10   71 1    
    23   11   12 ar   
    24   11   61 1    
    25   12   13 ar   
    26   12   72 1    
    27   13   14 ar   
    28   13   15 1    
    29   14   73 1    
    30   15   16 1    
    31   15   74 1    
    32   15   75 1    
    33   16   17 1    
    34   17   18 1    
    35   17   76 1    
    36   17   77 1    
    37   18   19 1    
    38   18   27 1    
    39   18   78 1    
    40   19   20 am   BACKBONE|DICT|INTERRES
    41   19   79 1    
    42   20   21 2    
    43   20   22 1    
    44   22   23 1    
    45   22   24 1    
    46   22   80 1    
    47   23   81 1    
    48   23   82 1    
    49   23   83 1    
    50   24   25 am   BACKBONE|DICT|INTERRES
    51   24   84 1    
    52   25   26 2    
    53   27   28 2    
    54   27   29 am   BACKBONE|DICT|INTERRES
    55   29   30 1    
    56   29   85 1    
    57   30   31 1    
    58   30   32 1    
    59   30   86 1    
    60   31   87 1    
    61   31   88 1    
    62   31   89 1    
    63   32   33 2    
    64   32   34 am   BACKBONE|DICT|INTERRES
    65   34   35 1    
    66   34   90 1    
    67   35   36 1    
    68   35   37 1    
    69   35   91 1    
    70   36   92 1    
    71   36   93 1    
    72   36   94 1    
    73   37   38 2    
    74   37   39 am   BACKBONE|DICT|INTERRES
    75   39   40 1    
    76   39   95 1    
    77   40   41 1    
    78   40   42 1    
    79   40   96 1    
    80   41   97 1    
    81   41   98 1    
    82   41   99 1    
    83   42   43 2    
    84   42   44 am   BACKBONE|DICT|INTERRES
    85   44   45 1    
    86   44  100 1    
    87   45   46 1    
    88   45   47 1    
    89   45  101 1    
    90   46  102 1    
    91   46  103 1    
    92   46  104 1    
    93   47   48 2    
    94   47   49 am   BACKBONE|DICT|INTERRES
    95   49   50 1    
    96   49  105 1    
    97   50   51 1    
    98   50   52 1    
    99   50  106 1    
   100   51  107 1    
   101   51  108 1    
   102   51  109 1    
   103   52   53 2    
   104   52   54 am   BACKBONE|DICT|INTERRES
   105   54   55 1    
   106   54  110 1    
   107   55   56 1    
   108   55   59 1    
   109   55  111 1    
   110   56   57 am   BACKBONE|DICT|INTERRES
   111   56   58 2    
   112   57  112 1    
   113   57  113 1    
   114   59   60 1    
   115   59  114 1    
   116   59  115 1    
   117   60   61 1    
   118   61  116 1    
   119   61  117 1    
@<TRIPOS>SUBSTRUCTURE
     1 UNK         1 GROUP             0       ****    0 ROOT    
