@<TRIPOS>MOLECULE
3R8
117   119    1
SMALL
USER_CHARGES


@<TRIPOS>ATOM
      1 CA         14.5905  -25.6191  -46.3698 C.3       0 UNK        -0.2013 
      2 C          16.0324  -25.1351  -46.4114 C.2       0 UNK         0.4866 
      3 O          16.2752  -23.9554  -46.6690 O.2       0 UNK        -0.5176 
      4 N          16.9896  -26.0386  -46.1674 N.am      1 UNK        -0.4884 
      5 CA         18.4217  -25.7356  -46.0787 C.3       1 UNK         0.0853 
      6 C6         19.2894  -26.9769  -46.4478 C.3       10 UNK        -0.0849 
      7 S7         19.5312  -28.2233  -45.1292 S.3       10 UNK        -0.2776 
      8 C8         18.1373  -29.3564  -45.4254 C.3       10 UNK         0.0316 
      9 C9         17.8738  -30.2510  -44.2219 C.ar      10 UNK        -0.0863 
     10 C10        17.8155  -31.6399  -44.3699 C.ar      10 UNK        -0.1009 
     11 C11        17.5423  -32.4691  -43.2723 C.ar      10 UNK        -0.0712 
     12 C12        17.3314  -31.8810  -42.0196 C.ar      10 UNK        -0.0894 
     13 C13        17.3901  -30.4927  -41.8558 C.ar      10 UNK        -0.0745 
     14 C14        17.6475  -29.6850  -42.9643 C.ar      10 UNK        -0.0972 
     15 C15        17.1452  -29.8647  -40.4903 C.3       10 UNK         0.0209 
     16 S16        18.6900  -29.3033  -39.7004 S.3       10 UNK        -0.2568 
     17 C17        18.8652  -27.5877  -40.3080 C.3       10 UNK        -0.0983 
     18 CA         20.1696  -27.3195  -41.1056 C.3       3 UNK         0.0876 
     19 N          20.0695  -26.0501  -41.8415 N.am      3 UNK        -0.4424 
     20 C          21.0356  -25.4049  -42.5105 C.2       2 UNK         0.4918 
     21 O          22.2143  -25.7573  -42.5418 O.2       2 UNK        -0.4875 
     22 CA         20.5908  -24.1695  -43.3144 C.3       2 UNK         0.0481 
     23 CB         21.7605  -23.2113  -43.6037 C.3       2 UNK        -0.1831 
     24 N          19.9907  -24.5898  -44.5809 N.am      2 UNK        -0.4498 
     25 C          18.7710  -25.1306  -44.6996 C.2       1 UNK         0.5027 
     26 O          17.9706  -25.2068  -43.7606 O.2       1 UNK        -0.4969 
     27 C          21.4187  -27.4210  -40.2023 C.2       3 UNK         0.5005 
     28 O          22.1446  -28.4128  -40.2792 O.2       3 UNK        -0.5279 
     29 N          21.6698  -26.3768  -39.3992 N.am      4 UNK        -0.4463 
     30 CA         22.8013  -26.2970  -38.4706 C.3       4 UNK         0.0283 
     31 CB         22.5998  -25.1020  -37.5253 C.3       4 UNK        -0.1875 
     32 C          24.1752  -26.2074  -39.1596 C.2       4 UNK         0.4949 
     33 O          25.1540  -26.7092  -38.6074 O.2       4 UNK        -0.5039 
     34 N          24.2308  -25.5759  -40.3400 N.am      5 UNK        -0.4663 
     35 CA         25.4479  -25.4449  -41.1456 C.3       5 UNK         0.0242 
     36 CB         25.3516  -24.1860  -42.0228 C.3       5 UNK        -0.1982 
     37 C          25.6878  -26.6917  -42.0095 C.2       5 UNK         0.5017 
     38 O          26.8314  -27.1272  -42.1443 O.2       5 UNK        -0.5012 
     39 N          24.6023  -27.2467  -42.5649 N.am      6 UNK        -0.4439 
     40 CA         24.5915  -28.4616  -43.3813 C.3       6 UNK         0.0297 
     41 CB         23.2293  -28.5671  -44.0882 C.3       6 UNK        -0.2006 
     42 C          24.8699  -29.7480  -42.5827 C.2       6 UNK         0.4892 
     43 O          25.2836  -30.7391  -43.1850 O.2       6 UNK        -0.5089 
     44 N          24.6203  -29.7083  -41.2638 N.am      7 UNK        -0.4243 
     45 CA         24.5731  -30.8382  -40.3280 C.3       7 UNK         0.0196 
     46 CB         25.9363  -31.5539  -40.2142 C.3       7 UNK        -0.2007 
     47 C          23.4049  -31.7778  -40.6782 C.2       7 UNK         0.5020 
     48 O          23.5833  -32.9939  -40.7815 O.2       7 UNK        -0.5147 
     49 N          22.2271  -31.1682  -40.8777 N.am      8 UNK        -0.4734 
     50 CA         20.9777  -31.7755  -41.3396 C.3       8 UNK         0.0238 
     51 CB         20.3802  -32.6672  -40.2243 C.3       8 UNK        -0.1912 
     52 C          21.1641  -32.4769  -42.6996 C.2       8 UNK         0.5038 
     53 O          21.7193  -31.8736  -43.6195 O.2       8 UNK        -0.5046 
     54 N          20.7154  -33.7314  -42.7924 N.am      9 UNK        -0.4200 
     55 CA         20.9197  -34.6257  -43.9381 C.3       9 UNK         0.0839 
     56 C          22.2681  -35.4065  -43.8759 C.2       9 UNK         0.5513 
     57 N          23.1487  -35.1687  -42.9095 N.am      9 UNK        -0.7519 
     58 O          22.5312  -36.2442  -44.7350 O.2       9 UNK        -0.4960 
     59 C59        19.6991  -35.5690  -44.1156 C.3       10 UNK        -0.0876 
     60 S60        18.2549  -34.7262  -44.8489 S.3       10 UNK        -0.2414 
     61 C61        17.4056  -33.9898  -43.4059 C.3       10 UNK         0.0169 
     62 H62        14.5229  -26.6838  -46.1469 H         1 UNK         0.0903 
     63 H63        14.0356  -25.0769  -45.6046 H         1 UNK         0.0903 
     64 H64        14.1074  -25.4428  -47.3305 H         1 UNK         0.0903 
     65 H65        16.7265  -26.9770  -45.9089 H         1 UNK         0.3096 
     66 H66        18.6377  -24.9623  -46.8202 H         1 UNK         0.1121 
     67 H67        20.2856  -26.6382  -46.7372 H         1 UNK         0.0849 
     68 H68        18.8925  -27.4656  -47.3393 H         1 UNK         0.0849 
     69 H69        17.2307  -28.7904  -45.6353 H         1 UNK         0.0865 
     70 H70        18.3487  -29.9485  -46.3173 H         1 UNK         0.0865 
     71 H71        17.9653  -32.0677  -45.3507 H         1 UNK         0.1346 
     72 H72        17.1057  -32.5079  -41.1677 H         1 UNK         0.1412 
     73 H73        17.6766  -28.6103  -42.8524 H         1 UNK         0.1426 
     74 H74        16.4391  -29.0377  -40.5769 H         1 UNK         0.0716 
     75 H75        16.6710  -30.5902  -39.8276 H         1 UNK         0.0716 
     76 H76        18.7932  -26.9157  -39.4508 H         1 UNK         0.0695 
     77 H77        18.0007  -27.3497  -40.9284 H         1 UNK         0.0695 
     78 H78        20.2658  -28.0963  -41.8675 H         1 UNK         0.0983 
     79 H79        19.1298  -25.6945  -41.9690 H         1 UNK         0.3095 
     80 H80        19.8502  -23.6240  -42.7256 H         1 UNK         0.0454 
     81 H81        21.4179  -22.3119  -44.1154 H         1 UNK         0.0851 
     82 H82        22.5261  -23.6779  -44.2249 H         1 UNK         0.0851 
     83 H83        22.2412  -22.8924  -42.6780 H         1 UNK         0.0851 
     84 H84        20.6041  -24.5929  -45.3832 H         1 UNK         0.2976 
     85 H85        21.0319  -25.5941  -39.4149 H         1 UNK         0.3116 
     86 H86        22.7992  -27.2084  -37.8685 H         1 UNK         0.0646 
     87 H87        21.6745  -25.1957  -36.9565 H         1 UNK         0.0847 
     88 H88        23.4149  -25.0346  -36.8032 H         1 UNK         0.0847 
     89 H89        22.5682  -24.1565  -38.0682 H         1 UNK         0.0847 
     90 H90        23.3687  -25.2545  -40.7613 H         1 UNK         0.3040 
     91 H91        26.3073  -25.3284  -40.4809 H         1 UNK         0.1015 
     92 H92        24.5262  -24.2472  -42.7324 H         1 UNK         0.0786 
     93 H93        26.2661  -24.0444  -42.6003 H         1 UNK         0.0786 
     94 H94        25.2087  -23.2906  -41.4177 H         1 UNK         0.0786 
     95 H95        23.7076  -26.7748  -42.4426 H         1 UNK         0.3172 
     96 H96        25.3691  -28.3667  -44.1419 H         1 UNK         0.0595 
     97 H97        22.4104  -28.6573  -43.3728 H         1 UNK         0.0839 
     98 H98        23.1887  -29.4457  -44.7337 H         1 UNK         0.0839 
     99 H99        23.0320  -27.6954  -44.7123 H         1 UNK         0.0839 
    100 H100       24.2236  -28.8475  -40.9066 H         1 UNK         0.2998 
    101 H101       24.3429  -30.4129  -39.3497 H         1 UNK         0.0822 
    102 H102       25.9158  -32.2973  -39.4165 H         1 UNK         0.0787 
    103 H103       26.2032  -32.0769  -41.1328 H         1 UNK         0.0787 
    104 H104       26.7355  -30.8498  -39.9830 H         1 UNK         0.0787 
    105 H105       22.1995  -30.1566  -40.7519 H         1 UNK         0.3055 
    106 H106       20.2846  -30.9553  -41.5280 H         1 UNK         0.1106 
    107 H107       20.2368  -32.0939  -39.3083 H         1 UNK         0.0828 
    108 H108       19.4029  -33.0607  -40.5009 H         1 UNK         0.0828 
    109 H109       21.0240  -33.5134  -39.9821 H         1 UNK         0.0828 
    110 H110       20.3035  -34.1517  -41.9739 H         1 UNK         0.2931 
    111 H111       20.9945  -34.0168  -44.8413 H         1 UNK         0.0412 
    112 H112       24.0125  -35.6873  -42.9003 H         1 UNK         0.3472 
    113 H113       22.9986  -34.4419  -42.2195 H         1 UNK         0.3472 
    114 H114       19.9390  -36.3879  -44.7962 H         1 UNK         0.0970 
    115 H115       19.4239  -36.0459  -43.1735 H         1 UNK         0.0970 
    116 H116       16.3435  -34.2230  -43.4889 H         1 UNK         0.0612 
    117 H117       17.7527  -34.4771  -42.4940 H         1 UNK         0.0612 
@<TRIPOS>BOND
     1    1    2 1    
     2    1   62 1    
     3    1   63 1    
     4    1   64 1    
     5    2    3 2    
     6    2    4 am   BACKBONE|DICT|INTERRES
     7    4    5 1    
     8    4   65 1    
     9    5    6 1    
    10    5   25 1    
    11    5   66 1    
    12    6    7 1    
    13    6   67 1    
    14    6   68 1    
    15    7    8 1    
    16    8    9 1    
    17    8   69 1    
    18    8   70 1    
    19    9   10 ar   
    20    9   14 ar   
    21   10   11 ar   
    22   10   71 1    
    23   11   12 ar   
    24   11   61 1    
    25   12   13 ar   
    26   12   72 1    
    27   13   14 ar   
    28   13   15 1    
    29   14   73 1    
    30   15   16 1    
    31   15   74 1    
    32   15   75 1    
    33   16   17 1    
    34   17   18 1    
    35   17   76 1    
    36   17   77 1    
    37   18   19 1    
    38   18   27 1    
    39   18   78 1    
    40   19   20 am   BACKBONE|DICT|INTERRES
    41   19   79 1    
    42   20   21 2    
    43   20   22 1    
    44   22   23 1    
    45   22   24 1    
    46   22   80 1    
    47   23   81 1    
    48   23   82 1    
    49   23   83 1    
    50   24   25 am   BACKBONE|DICT|INTERRES
    51   24   84 1    
    52   25   26 2    
    53   27   28 2    
    54   27   29 am   BACKBONE|DICT|INTERRES
    55   29   30 1    
    56   29   85 1    
    57   30   31 1    
    58   30   32 1    
    59   30   86 1    
    60   31   87 1    
    61   31   88 1    
    62   31   89 1    
    63   32   33 2    
    64   32   34 am   BACKBONE|DICT|INTERRES
    65   34   35 1    
    66   34   90 1    
    67   35   36 1    
    68   35   37 1    
    69   35   91 1    
    70   36   92 1    
    71   36   93 1    
    72   36   94 1    
    73   37   38 2    
    74   37   39 am   BACKBONE|DICT|INTERRES
    75   39   40 1    
    76   39   95 1    
    77   40   41 1    
    78   40   42 1    
    79   40   96 1    
    80   41   97 1    
    81   41   98 1    
    82   41   99 1    
    83   42   43 2    
    84   42   44 am   BACKBONE|DICT|INTERRES
    85   44   45 1    
    86   44  100 1    
    87   45   46 1    
    88   45   47 1    
    89   45  101 1    
    90   46  102 1    
    91   46  103 1    
    92   46  104 1    
    93   47   48 2    
    94   47   49 am   BACKBONE|DICT|INTERRES
    95   49   50 1    
    96   49  105 1    
    97   50   51 1    
    98   50   52 1    
    99   50  106 1    
   100   51  107 1    
   101   51  108 1    
   102   51  109 1    
   103   52   53 2    
   104   52   54 am   BACKBONE|DICT|INTERRES
   105   54   55 1    
   106   54  110 1    
   107   55   56 1    
   108   55   59 1    
   109   55  111 1    
   110   56   57 am   BACKBONE|DICT|INTERRES
   111   56   58 2    
   112   57  112 1    
   113   57  113 1    
   114   59   60 1    
   115   59  114 1    
   116   59  115 1    
   117   60   61 1    
   118   61  116 1    
   119   61  117 1    
@<TRIPOS>SUBSTRUCTURE
     1 UNK         1 GROUP             0       ****    0 ROOT    
