@<TRIPOS>MOLECULE
3R8
117   119    1
SMALL
USER_CHARGES


@<TRIPOS>ATOM
      1 CA         19.6847  -25.4723  -49.9505 C.3       0 UNK        -0.2013 
      2 C          20.1750  -25.9773  -48.6014 C.2       0 UNK         0.4866 
      3 O          21.3495  -25.8052  -48.2734 O.2       0 UNK        -0.5176 
      4 N          19.2877  -26.6075  -47.8221 N.am      1 UNK        -0.4884 
      5 CA         19.5717  -27.1163  -46.4762 C.3       1 UNK         0.0853 
      6 C6         18.4688  -28.0846  -45.9841 C.3       10 UNK        -0.0849 
      7 S7         18.4021  -29.6262  -46.9543 S.3       10 UNK        -0.2776 
      8 C8         16.9610  -30.4707  -46.2203 C.3       10 UNK         0.0316 
      9 C9         17.0488  -30.5717  -44.7021 C.ar      10 UNK        -0.0863 
     10 C10        17.8928  -31.5078  -44.0961 C.ar      10 UNK        -0.1009 
     11 C11        17.9779  -31.5853  -42.7013 C.ar      10 UNK        -0.0712 
     12 C12        17.2132  -30.7211  -41.9121 C.ar      10 UNK        -0.0894 
     13 C13        16.3717  -29.7793  -42.5084 C.ar      10 UNK        -0.0745 
     14 C14        16.2872  -29.7150  -43.9018 C.ar      10 UNK        -0.0972 
     15 C15        15.5524  -28.8243  -41.6573 C.3       10 UNK         0.0209 
     16 S16        16.3640  -27.2015  -41.5254 S.3       10 UNK        -0.2568 
     17 C17        17.4950  -27.4291  -40.1079 C.3       10 UNK        -0.0983 
     18 CA         18.9994  -27.5226  -40.4855 C.3       3 UNK         0.0876 
     19 N          19.3921  -26.5199  -41.4819 N.am      3 UNK        -0.4424 
     20 C          20.6017  -26.3816  -42.0390 C.2       2 UNK         0.4918 
     21 O          21.6026  -27.0289  -41.7209 O.2       2 UNK        -0.4875 
     22 CA         20.6708  -25.4119  -43.2207 C.3       2 UNK         0.0481 
     23 CB         21.9877  -24.6188  -43.2656 C.3       2 UNK        -0.1831 
     24 N          20.5344  -26.2337  -44.4168 N.am      2 UNK        -0.4498 
     25 C          19.7390  -25.9691  -45.4584 C.2       1 UNK         0.5027 
     26 O          19.1086  -24.9173  -45.5978 O.2       1 UNK        -0.4969 
     27 C          19.8627  -27.4546  -39.2106 C.2       3 UNK         0.5005 
     28 O          20.3973  -28.4738  -38.7744 O.2       3 UNK        -0.5279 
     29 N          20.0035  -26.2402  -38.6568 N.am      4 UNK        -0.4463 
     30 CA         20.7532  -25.9578  -37.4275 C.3       4 UNK         0.0283 
     31 CB         20.4316  -24.5320  -36.9518 C.3       4 UNK        -0.1875 
     32 C          22.2730  -26.1429  -37.5746 C.2       4 UNK         0.4949 
     33 O          22.9420  -26.4493  -36.5880 O.2       4 UNK        -0.5039 
     34 N          22.7868  -25.9684  -38.7992 N.am      5 UNK        -0.4663 
     35 CA         24.1881  -26.2077  -39.1512 C.3       5 UNK         0.0242 
     36 CB         24.5452  -25.3460  -40.3738 C.3       5 UNK        -0.1982 
     37 C          24.4832  -27.6908  -39.4398 C.2       5 UNK         0.5017 
     38 O          25.6561  -28.0508  -39.5428 O.2       5 UNK        -0.5012 
     39 N          23.4280  -28.5079  -39.5973 N.am      6 UNK        -0.4439 
     40 CA         23.4374  -29.9192  -39.9991 C.3       6 UNK         0.0297 
     41 CB         24.1123  -30.7937  -38.9201 C.3       6 UNK        -0.2006 
     42 C          24.0291  -30.1426  -41.4070 C.2       6 UNK         0.4892 
     43 O          24.5802  -31.2117  -41.6754 O.2       6 UNK        -0.5089 
     44 N          23.9104  -29.1292  -42.2799 N.am      7 UNK        -0.4243 
     45 CA         24.6307  -29.0173  -43.5547 C.3       7 UNK         0.0196 
     46 CB         24.3694  -27.6295  -44.1589 C.3       7 UNK        -0.2007 
     47 C          24.3236  -30.1168  -44.5850 C.2       7 UNK         0.5020 
     48 O          25.1790  -30.4129  -45.4196 O.2       7 UNK        -0.5147 
     49 N          23.1235  -30.6992  -44.5070 N.am      8 UNK        -0.4734 
     50 CA         22.6686  -31.8069  -45.3505 C.3       8 UNK         0.0238 
     51 CB         21.5276  -31.2959  -46.2475 C.3       8 UNK        -0.1912 
     52 C          22.2199  -33.0093  -44.5014 C.2       8 UNK         0.5038 
     53 O          21.5029  -33.8697  -45.0152 O.2       8 UNK        -0.5046 
     54 N          22.6082  -33.0338  -43.2192 N.am      9 UNK        -0.4200 
     55 CA         22.0762  -33.9549  -42.2016 C.3       9 UNK         0.0839 
     56 C          23.0968  -35.0308  -41.7369 C.2       9 UNK         0.5513 
     57 N          24.3025  -35.0874  -42.2897 N.am      9 UNK        -0.7519 
     58 O          22.7838  -35.8416  -40.8689 O.2       9 UNK        -0.4960 
     59 C59        21.4578  -33.1902  -40.9963 C.3       10 UNK        -0.0876 
     60 S60        20.4202  -31.7619  -41.4704 S.3       10 UNK        -0.2414 
     61 C61        18.9090  -32.5882  -42.0420 C.3       10 UNK         0.0169 
     62 H62        20.2643  -25.9257  -50.7542 H         1 UNK         0.0903 
     63 H63        18.6335  -25.7072  -50.1168 H         1 UNK         0.0903 
     64 H64        19.8043  -24.3910  -50.0117 H         1 UNK         0.0903 
     65 H65        18.3343  -26.7159  -48.1370 H         1 UNK         0.3096 
     66 H66        20.5172  -27.6625  -46.5223 H         1 UNK         0.1121 
     67 H67        17.4888  -27.6034  -46.0067 H         1 UNK         0.0849 
     68 H68        18.6496  -28.3635  -44.9437 H         1 UNK         0.0849 
     69 H69        16.0527  -29.9441  -46.5174 H         1 UNK         0.0865 
     70 H70        16.8822  -31.4717  -46.6471 H         1 UNK         0.0865 
     71 H71        18.4920  -32.1662  -44.7108 H         1 UNK         0.1346 
     72 H72        17.2875  -30.7733  -40.8344 H         1 UNK         0.1412 
     73 H73        15.6385  -28.9820  -44.3622 H         1 UNK         0.1426 
     74 H74        15.3659  -29.2406  -40.6662 H         1 UNK         0.0716 
     75 H75        14.5711  -28.6861  -42.1136 H         1 UNK         0.0716 
     76 H76        17.3171  -26.5813  -39.4432 H         1 UNK         0.0695 
     77 H77        17.1982  -28.3133  -39.5412 H         1 UNK         0.0695 
     78 H78        19.1723  -28.4999  -40.9426 H         1 UNK         0.0983 
     79 H79        18.6281  -25.9713  -41.8510 H         1 UNK         0.3095 
     80 H80        19.8437  -24.7032  -43.1396 H         1 UNK         0.0454 
     81 H81        22.8537  -25.2679  -43.3819 H         1 UNK         0.0851 
     82 H82        21.9911  -23.9127  -44.0959 H         1 UNK         0.0851 
     83 H83        22.1286  -24.0439  -42.3497 H         1 UNK         0.0851 
     84 H84        20.9818  -27.1381  -44.3602 H         1 UNK         0.2976 
     85 H85        19.5387  -25.4583  -39.0965 H         1 UNK         0.3116 
     86 H86        20.4128  -26.6573  -36.6608 H         1 UNK         0.0646 
     87 H87        20.9547  -24.3042  -36.0219 H         1 UNK         0.0847 
     88 H88        19.3659  -24.4073  -36.7589 H         1 UNK         0.0847 
     89 H89        20.7319  -23.7824  -37.6850 H         1 UNK         0.0847 
     90 H90        22.1609  -25.7358  -39.5570 H         1 UNK         0.3040 
     91 H91        24.8255  -25.9027  -38.3179 H         1 UNK         0.1015 
     92 H92        24.3603  -24.2885  -40.1848 H         1 UNK         0.0786 
     93 H93        23.9703  -25.6381  -41.2520 H         1 UNK         0.0786 
     94 H94        25.6008  -25.4488  -40.6291 H         1 UNK         0.0786 
     95 H95        22.5047  -28.1060  -39.4844 H         1 UNK         0.3172 
     96 H96        22.3904  -30.2133  -40.0545 H         1 UNK         0.0595 
     97 H97        23.6549  -30.6384  -37.9430 H         1 UNK         0.0839 
     98 H98        25.1772  -30.5779  -38.8307 H         1 UNK         0.0839 
     99 H99        24.0218  -31.8545  -39.1532 H         1 UNK         0.0839 
    100 H100       23.3736  -28.3201  -41.9888 H         1 UNK         0.2998 
    101 H101       25.6960  -29.0902  -43.3253 H         1 UNK         0.0822 
    102 H102       24.7044  -26.8383  -43.4883 H         1 UNK         0.0787 
    103 H103       24.9082  -27.5028  -45.0990 H         1 UNK         0.0787 
    104 H104       23.3106  -27.4753  -44.3670 H         1 UNK         0.0787 
    105 H105       22.4907  -30.3975  -43.7786 H         1 UNK         0.3055 
    106 H106       23.4782  -32.1657  -45.9897 H         1 UNK         0.1106 
    107 H107       21.1902  -32.0667  -46.9415 H         1 UNK         0.0828 
    108 H108       20.6659  -30.9918  -45.6528 H         1 UNK         0.0828 
    109 H109       21.8416  -30.4403  -46.8454 H         1 UNK         0.0828 
    110 H110       23.2556  -32.3313  -42.8801 H         1 UNK         0.2931 
    111 H111       21.2634  -34.5334  -42.6428 H         1 UNK         0.0412 
    112 H112       24.9550  -35.7927  -41.9846 H         1 UNK         0.3472 
    113 H113       24.5675  -34.4282  -43.0042 H         1 UNK         0.3472 
    114 H114       20.8647  -33.8669  -40.3783 H         1 UNK         0.0970 
    115 H115       22.2489  -32.8132  -40.3484 H         1 UNK         0.0970 
    116 H116       19.1672  -33.3812  -42.7451 H         1 UNK         0.0612 
    117 H117       18.4107  -33.0655  -41.1971 H         1 UNK         0.0612 
@<TRIPOS>BOND
     1    1    2 1    
     2    1   62 1    
     3    1   63 1    
     4    1   64 1    
     5    2    3 2    
     6    2    4 am   BACKBONE|DICT|INTERRES
     7    4    5 1    
     8    4   65 1    
     9    5    6 1    
    10    5   25 1    
    11    5   66 1    
    12    6    7 1    
    13    6   67 1    
    14    6   68 1    
    15    7    8 1    
    16    8    9 1    
    17    8   69 1    
    18    8   70 1    
    19    9   10 ar   
    20    9   14 ar   
    21   10   11 ar   
    22   10   71 1    
    23   11   12 ar   
    24   11   61 1    
    25   12   13 ar   
    26   12   72 1    
    27   13   14 ar   
    28   13   15 1    
    29   14   73 1    
    30   15   16 1    
    31   15   74 1    
    32   15   75 1    
    33   16   17 1    
    34   17   18 1    
    35   17   76 1    
    36   17   77 1    
    37   18   19 1    
    38   18   27 1    
    39   18   78 1    
    40   19   20 am   BACKBONE|DICT|INTERRES
    41   19   79 1    
    42   20   21 2    
    43   20   22 1    
    44   22   23 1    
    45   22   24 1    
    46   22   80 1    
    47   23   81 1    
    48   23   82 1    
    49   23   83 1    
    50   24   25 am   BACKBONE|DICT|INTERRES
    51   24   84 1    
    52   25   26 2    
    53   27   28 2    
    54   27   29 am   BACKBONE|DICT|INTERRES
    55   29   30 1    
    56   29   85 1    
    57   30   31 1    
    58   30   32 1    
    59   30   86 1    
    60   31   87 1    
    61   31   88 1    
    62   31   89 1    
    63   32   33 2    
    64   32   34 am   BACKBONE|DICT|INTERRES
    65   34   35 1    
    66   34   90 1    
    67   35   36 1    
    68   35   37 1    
    69   35   91 1    
    70   36   92 1    
    71   36   93 1    
    72   36   94 1    
    73   37   38 2    
    74   37   39 am   BACKBONE|DICT|INTERRES
    75   39   40 1    
    76   39   95 1    
    77   40   41 1    
    78   40   42 1    
    79   40   96 1    
    80   41   97 1    
    81   41   98 1    
    82   41   99 1    
    83   42   43 2    
    84   42   44 am   BACKBONE|DICT|INTERRES
    85   44   45 1    
    86   44  100 1    
    87   45   46 1    
    88   45   47 1    
    89   45  101 1    
    90   46  102 1    
    91   46  103 1    
    92   46  104 1    
    93   47   48 2    
    94   47   49 am   BACKBONE|DICT|INTERRES
    95   49   50 1    
    96   49  105 1    
    97   50   51 1    
    98   50   52 1    
    99   50  106 1    
   100   51  107 1    
   101   51  108 1    
   102   51  109 1    
   103   52   53 2    
   104   52   54 am   BACKBONE|DICT|INTERRES
   105   54   55 1    
   106   54  110 1    
   107   55   56 1    
   108   55   59 1    
   109   55  111 1    
   110   56   57 am   BACKBONE|DICT|INTERRES
   111   56   58 2    
   112   57  112 1    
   113   57  113 1    
   114   59   60 1    
   115   59  114 1    
   116   59  115 1    
   117   60   61 1    
   118   61  116 1    
   119   61  117 1    
@<TRIPOS>SUBSTRUCTURE
     1 UNK         1 GROUP             0       ****    0 ROOT    
