@<TRIPOS>MOLECULE
3R8
117   119    1
SMALL
USER_CHARGES


@<TRIPOS>ATOM
      1 CA         14.1351  -22.9154  -45.5267 C.3       0 UNK        -0.2013 
      2 C          14.9147  -23.7370  -44.5102 C.2       0 UNK         0.4866 
      3 O          15.2711  -23.2148  -43.4535 O.2       0 UNK        -0.5176 
      4 N          15.1699  -25.0152  -44.8256 N.am      1 UNK        -0.4884 
      5 CA         15.9482  -25.9799  -44.0341 C.3       1 UNK         0.0853 
      6 C6         15.3521  -26.2021  -42.6115 C.3       10 UNK        -0.0849 
      7 S7         15.8014  -27.7684  -41.7816 S.3       10 UNK        -0.2776 
      8 C8         14.9830  -29.0387  -42.7995 C.3       10 UNK         0.0316 
      9 C9         15.9913  -29.7683  -43.6768 C.ar      10 UNK        -0.0863 
     10 C10        16.8898  -30.6719  -43.0998 C.ar      10 UNK        -0.1009 
     11 C11        17.8205  -31.3523  -43.8904 C.ar      10 UNK        -0.0712 
     12 C12        17.8509  -31.1212  -45.2677 C.ar      10 UNK        -0.0894 
     13 C13        16.9737  -30.2049  -45.8534 C.ar      10 UNK        -0.0745 
     14 C14        16.0295  -29.5510  -45.0575 C.ar      10 UNK        -0.0972 
     15 C15        17.0447  -29.9141  -47.3442 C.3       10 UNK         0.0209 
     16 S16        18.0143  -28.4091  -47.6859 S.3       10 UNK        -0.2568 
     17 C17        19.7263  -29.0008  -47.4515 C.3       10 UNK        -0.0983 
     18 CA         20.6153  -28.0121  -46.6552 C.3       3 UNK         0.0876 
     19 N          20.0433  -27.6763  -45.3409 N.am      3 UNK        -0.4424 
     20 C          20.4111  -26.6227  -44.5967 C.2       2 UNK         0.4918 
     21 O          21.2606  -25.8036  -44.9503 O.2       2 UNK        -0.4875 
     22 CA         19.7077  -26.4764  -43.2327 C.3       2 UNK         0.0481 
     23 CB         20.1751  -25.2373  -42.4419 C.3       2 UNK        -0.1831 
     24 N          18.2454  -26.5003  -43.3453 N.am      2 UNK        -0.4498 
     25 C          17.4663  -25.6747  -44.0600 C.2       1 UNK         0.5027 
     26 O          17.9035  -24.7465  -44.7459 O.2       1 UNK        -0.4969 
     27 C          22.0657  -28.5491  -46.5687 C.2       3 UNK         0.5005 
     28 O          22.7264  -28.6742  -47.6015 O.2       3 UNK        -0.5279 
     29 N          22.5332  -28.8582  -45.3546 N.am      4 UNK        -0.4463 
     30 CA         23.8836  -29.2910  -45.0164 C.3       4 UNK         0.0283 
     31 CB         23.9211  -30.8279  -44.9363 C.3       4 UNK        -0.1875 
     32 C          24.2851  -28.6322  -43.6868 C.2       4 UNK         0.4949 
     33 O          23.4872  -27.8939  -43.1023 O.2       4 UNK        -0.5039 
     34 N          25.5205  -28.9054  -43.2473 N.am      5 UNK        -0.4663 
     35 CA         26.1554  -28.3658  -42.0384 C.3       5 UNK         0.0242 
     36 CB         27.5852  -28.9290  -41.9564 C.3       5 UNK        -0.1982 
     37 C          25.3969  -28.6610  -40.7305 C.2       5 UNK         0.5017 
     38 O          24.5394  -29.5468  -40.6929 O.2       5 UNK        -0.5012 
     39 N          25.7689  -27.9440  -39.6602 N.am      6 UNK        -0.4439 
     40 CA         25.1788  -28.0165  -38.3150 C.3       6 UNK         0.0297 
     41 CB         25.9144  -27.0345  -37.3887 C.3       6 UNK        -0.2006 
     42 C          25.1499  -29.4216  -37.6810 C.2       6 UNK         0.4892 
     43 O          24.2444  -29.7097  -36.8985 O.2       6 UNK        -0.5089 
     44 N          26.1248  -30.2681  -38.0364 N.am      7 UNK        -0.4243 
     45 CA         26.2120  -31.6643  -37.6031 C.3       7 UNK         0.0196 
     46 CB         27.6751  -32.1246  -37.7175 C.3       7 UNK        -0.2007 
     47 C          25.2913  -32.6146  -38.3938 C.2       7 UNK         0.5020 
     48 O          25.0556  -33.7303  -37.9289 O.2       7 UNK        -0.5147 
     49 N          24.8167  -32.1880  -39.5717 N.am      8 UNK        -0.4734 
     50 CA         24.0093  -32.9910  -40.4903 C.3       8 UNK         0.0238 
     51 CB         24.6121  -32.9022  -41.9038 C.3       8 UNK        -0.1912 
     52 C          22.5431  -32.5394  -40.4827 C.2       8 UNK         0.5038 
     53 O          21.6685  -33.3534  -40.1830 O.2       8 UNK        -0.5046 
     54 N          22.3073  -31.2635  -40.8120 N.am      9 UNK        -0.4200 
     55 CA         20.9760  -30.6400  -40.9064 C.3       9 UNK         0.0839 
     56 C          20.8365  -29.3596  -40.0407 C.2       9 UNK         0.5513 
     57 N          21.9144  -28.7599  -39.5553 N.am      9 UNK        -0.7519 
     58 O          19.7220  -28.9053  -39.7987 O.2       9 UNK        -0.4960 
     59 C59        20.5745  -30.3339  -42.3731 C.3       10 UNK        -0.0876 
     60 S60        20.5260  -31.8105  -43.4421 S.3       10 UNK        -0.2414 
     61 C61        18.7933  -32.3395  -43.2612 C.3       10 UNK         0.0169 
     62 H62        13.2161  -22.5382  -45.0787 H         1 UNK         0.0903 
     63 H63        13.8677  -23.4995  -46.4071 H         1 UNK         0.0903 
     64 H64        14.7296  -22.0628  -45.8537 H         1 UNK         0.0903 
     65 H65        14.8689  -25.3553  -45.7288 H         1 UNK         0.3096 
     66 H66        15.8461  -26.9092  -44.5859 H         1 UNK         0.1121 
     67 H67        15.6341  -25.3803  -41.9509 H         1 UNK         0.0849 
     68 H68        14.2623  -26.1715  -42.6605 H         1 UNK         0.0849 
     69 H69        14.4985  -29.7593  -42.1388 H         1 UNK         0.0865 
     70 H70        14.1855  -28.5946  -43.3972 H         1 UNK         0.0865 
     71 H71        16.8637  -30.8416  -42.0317 H         1 UNK         0.1346 
     72 H72        18.5714  -31.6486  -45.8775 H         1 UNK         0.1412 
     73 H73        15.3309  -28.8684  -45.5209 H         1 UNK         0.1426 
     74 H74        17.4724  -30.7593  -47.8862 H         1 UNK         0.0716 
     75 H75        16.0364  -29.7799  -47.7386 H         1 UNK         0.0716 
     76 H76        20.1445  -29.1690  -48.4459 H         1 UNK         0.0695 
     77 H77        19.7220  -29.9752  -46.9643 H         1 UNK         0.0695 
     78 H78        20.6699  -27.0851  -47.2305 H         1 UNK         0.0983 
     79 H79        19.3046  -28.2812  -45.0114 H         1 UNK         0.3095 
     80 H80        19.9846  -27.3539  -42.6476 H         1 UNK         0.0454 
     81 H81        19.6960  -25.1876  -41.4643 H         1 UNK         0.0851 
     82 H82        19.9562  -24.3096  -42.9716 H         1 UNK         0.0851 
     83 H83        21.2523  -25.2693  -42.2725 H         1 UNK         0.0851 
     84 H84        17.7752  -27.2209  -42.8093 H         1 UNK         0.2976 
     85 H85        21.9673  -28.6180  -44.5530 H         1 UNK         0.3116 
     86 H86        24.5829  -28.9479  -45.7817 H         1 UNK         0.0646 
     87 H87        23.5557  -31.2817  -45.8576 H         1 UNK         0.0847 
     88 H88        24.9352  -31.1959  -44.7798 H         1 UNK         0.0847 
     89 H89        23.3073  -31.2006  -44.1170 H         1 UNK         0.0847 
     90 H90        26.0881  -29.5346  -43.7956 H         1 UNK         0.3040 
     91 H91        26.2045  -27.2810  -42.1551 H         1 UNK         0.1015 
     92 H92        27.5838  -30.0147  -41.8469 H         1 UNK         0.0786 
     93 H93        28.1311  -28.5170  -41.1067 H         1 UNK         0.0786 
     94 H94        28.1604  -28.6838  -42.8496 H         1 UNK         0.0786 
     95 H95        26.4956  -27.2531  -39.7835 H         1 UNK         0.3172 
     96 H96        24.1455  -27.6783  -38.3993 H         1 UNK         0.0595 
     97 H97        26.9713  -27.2858  -37.2899 H         1 UNK         0.0839 
     98 H98        25.4831  -27.0449  -36.3865 H         1 UNK         0.0839 
     99 H99        25.8440  -26.0104  -37.7559 H         1 UNK         0.0839 
    100 H100       26.8323  -29.9425  -38.6787 H         1 UNK         0.2998 
    101 H101       25.9177  -31.7249  -36.5529 H         1 UNK         0.0822 
    102 H102       28.3354  -31.5040  -37.1113 H         1 UNK         0.0787 
    103 H103       27.7900  -33.1521  -37.3691 H         1 UNK         0.0787 
    104 H104       28.0306  -32.0888  -38.7482 H         1 UNK         0.0787 
    105 H105       24.9873  -31.2272  -39.8504 H         1 UNK         0.3055 
    106 H106       24.0245  -34.0420  -40.1920 H         1 UNK         0.1106 
    107 H107       25.5944  -33.3730  -41.9404 H         1 UNK         0.0828 
    108 H108       23.9812  -33.4114  -42.6339 H         1 UNK         0.0828 
    109 H109       24.7298  -31.8697  -42.2324 H         1 UNK         0.0828 
    110 H110       23.0990  -30.6501  -40.9832 H         1 UNK         0.2931 
    111 H111       20.2317  -31.3297  -40.5045 H         1 UNK         0.0412 
    112 H112       21.7970  -27.9357  -38.9888 H         1 UNK         0.3472 
    113 H113       22.8415  -29.0878  -39.7926 H         1 UNK         0.3472 
    114 H114       19.6026  -29.8394  -42.4122 H         1 UNK         0.0970 
    115 H115       21.2849  -29.6310  -42.8081 H         1 UNK         0.0970 
    116 H116       18.6717  -33.3117  -43.7405 H         1 UNK         0.0612 
    117 H117       18.5747  -32.4882  -42.2026 H         1 UNK         0.0612 
@<TRIPOS>BOND
     1    1    2 1    
     2    1   62 1    
     3    1   63 1    
     4    1   64 1    
     5    2    3 2    
     6    2    4 am   BACKBONE|DICT|INTERRES
     7    4    5 1    
     8    4   65 1    
     9    5    6 1    
    10    5   25 1    
    11    5   66 1    
    12    6    7 1    
    13    6   67 1    
    14    6   68 1    
    15    7    8 1    
    16    8    9 1    
    17    8   69 1    
    18    8   70 1    
    19    9   10 ar   
    20    9   14 ar   
    21   10   11 ar   
    22   10   71 1    
    23   11   12 ar   
    24   11   61 1    
    25   12   13 ar   
    26   12   72 1    
    27   13   14 ar   
    28   13   15 1    
    29   14   73 1    
    30   15   16 1    
    31   15   74 1    
    32   15   75 1    
    33   16   17 1    
    34   17   18 1    
    35   17   76 1    
    36   17   77 1    
    37   18   19 1    
    38   18   27 1    
    39   18   78 1    
    40   19   20 am   BACKBONE|DICT|INTERRES
    41   19   79 1    
    42   20   21 2    
    43   20   22 1    
    44   22   23 1    
    45   22   24 1    
    46   22   80 1    
    47   23   81 1    
    48   23   82 1    
    49   23   83 1    
    50   24   25 am   BACKBONE|DICT|INTERRES
    51   24   84 1    
    52   25   26 2    
    53   27   28 2    
    54   27   29 am   BACKBONE|DICT|INTERRES
    55   29   30 1    
    56   29   85 1    
    57   30   31 1    
    58   30   32 1    
    59   30   86 1    
    60   31   87 1    
    61   31   88 1    
    62   31   89 1    
    63   32   33 2    
    64   32   34 am   BACKBONE|DICT|INTERRES
    65   34   35 1    
    66   34   90 1    
    67   35   36 1    
    68   35   37 1    
    69   35   91 1    
    70   36   92 1    
    71   36   93 1    
    72   36   94 1    
    73   37   38 2    
    74   37   39 am   BACKBONE|DICT|INTERRES
    75   39   40 1    
    76   39   95 1    
    77   40   41 1    
    78   40   42 1    
    79   40   96 1    
    80   41   97 1    
    81   41   98 1    
    82   41   99 1    
    83   42   43 2    
    84   42   44 am   BACKBONE|DICT|INTERRES
    85   44   45 1    
    86   44  100 1    
    87   45   46 1    
    88   45   47 1    
    89   45  101 1    
    90   46  102 1    
    91   46  103 1    
    92   46  104 1    
    93   47   48 2    
    94   47   49 am   BACKBONE|DICT|INTERRES
    95   49   50 1    
    96   49  105 1    
    97   50   51 1    
    98   50   52 1    
    99   50  106 1    
   100   51  107 1    
   101   51  108 1    
   102   51  109 1    
   103   52   53 2    
   104   52   54 am   BACKBONE|DICT|INTERRES
   105   54   55 1    
   106   54  110 1    
   107   55   56 1    
   108   55   59 1    
   109   55  111 1    
   110   56   57 am   BACKBONE|DICT|INTERRES
   111   56   58 2    
   112   57  112 1    
   113   57  113 1    
   114   59   60 1    
   115   59  114 1    
   116   59  115 1    
   117   60   61 1    
   118   61  116 1    
   119   61  117 1    
@<TRIPOS>SUBSTRUCTURE
     1 UNK         1 GROUP             0       ****    0 ROOT    
