@<TRIPOS>MOLECULE
3R8
117   119    1
SMALL
USER_CHARGES


@<TRIPOS>ATOM
      1 CA         20.7692  -27.8898  -46.2787 C.3       0 UNK        -0.2013 
      2 C          19.8420  -27.4836  -47.4220 C.2       0 UNK         0.4866 
      3 O          20.2703  -27.4911  -48.5745 O.2       0 UNK        -0.5176 
      4 N          18.5695  -27.1405  -47.1728 N.am      1 UNK        -0.4884 
      5 CA         17.9176  -26.9992  -45.8656 C.3       1 UNK         0.0853 
      6 C6         16.4324  -27.4534  -45.9350 C.3       10 UNK        -0.0849 
      7 S7         15.6036  -27.6976  -44.3194 S.3       10 UNK        -0.2776 
      8 C8         16.1333  -29.3653  -43.8136 C.3       10 UNK         0.0316 
      9 C9         17.4508  -29.3493  -43.0470 C.ar      10 UNK        -0.0863 
     10 C10        18.5861  -29.9643  -43.5830 C.ar      10 UNK        -0.1009 
     11 C11        19.7783  -30.0098  -42.8551 C.ar      10 UNK        -0.0712 
     12 C12        19.8361  -29.4210  -41.5884 C.ar      10 UNK        -0.0894 
     13 C13        18.7113  -28.7988  -41.0377 C.ar      10 UNK        -0.0745 
     14 C14        17.5198  -28.7721  -41.7729 C.ar      10 UNK        -0.0972 
     15 C15        18.7731  -28.2178  -39.6261 C.3       10 UNK         0.0209 
     16 S16        18.2528  -26.4699  -39.5327 S.3       10 UNK        -0.2568 
     17 C17        19.7659  -25.5653  -40.0181 C.3       10 UNK        -0.0983 
     18 CA         20.0163  -25.5859  -41.5464 C.3       3 UNK         0.0876 
     19 N          18.8520  -25.1919  -42.3408 N.am      3 UNK        -0.4424 
     20 C          18.3792  -23.9600  -42.5775 C.2       2 UNK         0.4918 
     21 O          18.7889  -22.9429  -42.0170 O.2       2 UNK        -0.4875 
     22 CA         17.2851  -23.8552  -43.6658 C.3       2 UNK         0.0481 
     23 CB         17.4391  -22.5802  -44.5206 C.3       2 UNK        -0.1831 
     24 N          17.1988  -25.0515  -44.5229 N.am      2 UNK        -0.4498 
     25 C          18.1626  -25.5813  -45.2931 C.2       1 UNK         0.5027 
     26 O          19.2562  -25.0375  -45.4634 O.2       1 UNK        -0.4969 
     27 C          21.3117  -24.8680  -41.9918 C.2       3 UNK         0.5005 
     28 O          22.1498  -24.5224  -41.1565 O.2       3 UNK        -0.5279 
     29 N          21.4629  -24.6777  -43.3153 N.am      4 UNK        -0.4463 
     30 CA         22.6865  -24.1826  -43.9577 C.3       4 UNK         0.0283 
     31 CB         22.3780  -23.8154  -45.4179 C.3       4 UNK        -0.1875 
     32 C          23.8450  -25.1968  -43.8907 C.2       4 UNK         0.4949 
     33 O          25.0081  -24.7964  -43.9392 O.2       4 UNK        -0.5039 
     34 N          23.4980  -26.4809  -43.7547 N.am      5 UNK        -0.4663 
     35 CA         24.3832  -27.5783  -43.3817 C.3       5 UNK         0.0242 
     36 CB         24.2982  -28.6738  -44.4580 C.3       5 UNK        -0.1982 
     37 C          23.9135  -28.1142  -42.0210 C.2       5 UNK         0.5017 
     38 O          22.7564  -27.8998  -41.6484 O.2       5 UNK        -0.5012 
     39 N          24.8090  -28.8074  -41.3080 N.am      6 UNK        -0.4439 
     40 CA         24.5277  -29.4349  -40.0137 C.3       6 UNK         0.0297 
     41 CB         25.8439  -29.9506  -39.4086 C.3       6 UNK        -0.2006 
     42 C          23.5156  -30.5856  -40.1372 C.2       6 UNK         0.4892 
     43 O          23.5045  -31.2792  -41.1548 O.2       6 UNK        -0.5089 
     44 N          22.7331  -30.8073  -39.0710 N.am      7 UNK        -0.4243 
     45 CA         21.6773  -31.8281  -38.9664 C.3       7 UNK         0.0196 
     46 CB         20.9260  -31.6321  -37.6394 C.3       7 UNK        -0.2007 
     47 C          22.1452  -33.2913  -39.1203 C.2       7 UNK         0.5020 
     48 O          21.3075  -34.1811  -39.2695 O.2       7 UNK        -0.5147 
     49 N          23.4659  -33.5175  -39.1321 N.am      8 UNK        -0.4734 
     50 CA         24.1204  -34.7717  -39.5173 C.3       8 UNK         0.0238 
     51 CB         25.6127  -34.6779  -39.1565 C.3       8 UNK        -0.1912 
     52 C          23.9428  -35.1439  -41.0070 C.2       8 UNK         0.5038 
     53 O          24.3139  -36.2559  -41.3851 O.2       8 UNK        -0.5046 
     54 N          23.3864  -34.2305  -41.8177 N.am      9 UNK        -0.4200 
     55 CA         22.9967  -34.4255  -43.2233 C.3       9 UNK         0.0839 
     56 C          22.0302  -35.6166  -43.5061 C.2       9 UNK         0.5513 
     57 N          21.2626  -36.0951  -42.5333 N.am      9 UNK        -0.7519 
     58 O          21.9840  -36.1137  -44.6286 O.2       9 UNK        -0.4960 
     59 C59        22.4546  -33.1059  -43.8392 C.3       10 UNK        -0.0876 
     60 S60        20.9248  -32.5017  -43.0360 S.3       10 UNK        -0.2414 
     61 C61        20.9928  -30.7285  -43.4212 C.3       10 UNK         0.0169 
     62 H62        20.8770  -27.0904  -45.5482 H         1 UNK         0.0903 
     63 H63        20.3884  -28.7777  -45.7790 H         1 UNK         0.0903 
     64 H64        21.7638  -28.1240  -46.6580 H         1 UNK         0.0903 
     65 H65        18.0019  -26.8580  -47.9596 H         1 UNK         0.3096 
     66 H66        18.4085  -27.6725  -45.1645 H         1 UNK         0.1121 
     67 H67        15.8465  -26.7395  -46.5171 H         1 UNK         0.0849 
     68 H68        16.3633  -28.3947  -46.4831 H         1 UNK         0.0849 
     69 H69        15.3633  -29.7914  -43.1688 H         1 UNK         0.0865 
     70 H70        16.1881  -30.0193  -44.6853 H         1 UNK         0.0865 
     71 H71        18.5374  -30.4356  -44.5553 H         1 UNK         0.1346 
     72 H72        20.7569  -29.4670  -41.0237 H         1 UNK         0.1412 
     73 H73        16.6387  -28.3120  -41.3459 H         1 UNK         0.1426 
     74 H74        19.7737  -28.3188  -39.2025 H         1 UNK         0.0716 
     75 H75        18.1135  -28.8068  -38.9875 H         1 UNK         0.0716 
     76 H76        20.6151  -25.9942  -39.4828 H         1 UNK         0.0695 
     77 H77        19.6701  -24.5361  -39.6682 H         1 UNK         0.0695 
     78 H78        20.2024  -26.6255  -41.8142 H         1 UNK         0.0983 
     79 H79        18.3872  -25.9521  -42.8130 H         1 UNK         0.3095 
     80 H80        16.3335  -23.7901  -43.1367 H         1 UNK         0.0454 
     81 H81        17.3549  -21.6837  -43.9054 H         1 UNK         0.0851 
     82 H82        16.6652  -22.5192  -45.2855 H         1 UNK         0.0851 
     83 H83        18.4080  -22.5396  -45.0192 H         1 UNK         0.0851 
     84 H84        16.3527  -25.6009  -44.4147 H         1 UNK         0.2976 
     85 H85        20.6958  -24.9127  -43.9366 H         1 UNK         0.3116 
     86 H86        23.0043  -23.2784  -43.4344 H         1 UNK         0.0646 
     87 H87        21.5904  -23.0642  -45.4809 H         1 UNK         0.0847 
     88 H88        22.0572  -24.6837  -45.9950 H         1 UNK         0.0847 
     89 H89        23.2593  -23.4034  -45.9113 H         1 UNK         0.0847 
     90 H90        22.5164  -26.6807  -43.6279 H         1 UNK         0.3040 
     91 H91        25.4151  -27.2321  -43.2884 H         1 UNK         0.1015 
     92 H92        24.9220  -29.5306  -44.1997 H         1 UNK         0.0786 
     93 H93        24.6408  -28.3027  -45.4241 H         1 UNK         0.0786 
     94 H94        23.2790  -29.0388  -44.5854 H         1 UNK         0.0786 
     95 H95        25.7221  -28.9778  -41.7036 H         1 UNK         0.3172 
     96 H96        24.1117  -28.6714  -39.3527 H         1 UNK         0.0595 
     97 H97        26.3024  -30.7184  -40.0336 H         1 UNK         0.0839 
     98 H98        25.6793  -30.3890  -38.4234 H         1 UNK         0.0839 
     99 H99        26.5668  -29.1442  -39.2828 H         1 UNK         0.0839 
    100 H100       22.8440  -30.2053  -38.2674 H         1 UNK         0.2998 
    101 H101       20.9748  -31.6476  -39.7829 H         1 UNK         0.0822 
    102 H102       20.4882  -30.6357  -37.5738 H         1 UNK         0.0787 
    103 H103       20.1079  -32.3475  -37.5424 H         1 UNK         0.0787 
    104 H104       21.5835  -31.7705  -36.7802 H         1 UNK         0.0787 
    105 H105       24.0699  -32.7181  -39.0108 H         1 UNK         0.3055 
    106 H106       23.6719  -35.5786  -38.9336 H         1 UNK         0.1106 
    107 H107       25.7539  -34.4887  -38.0922 H         1 UNK         0.0828 
    108 H108       26.1313  -35.6096  -39.3877 H         1 UNK         0.0828 
    109 H109       26.1122  -33.8817  -39.7100 H         1 UNK         0.0828 
    110 H110       23.1684  -33.3171  -41.4349 H         1 UNK         0.2931 
    111 H111       23.9216  -34.6659  -43.7506 H         1 UNK         0.0412 
    112 H112       21.2805  -35.6700  -41.6185 H         1 UNK         0.3472 
    113 H113       20.6425  -36.8664  -42.7230 H         1 UNK         0.3472 
    114 H114       23.2202  -32.3317  -43.7638 H         1 UNK         0.0970 
    115 H115       22.2641  -33.2295  -44.9069 H         1 UNK         0.0970 
    116 H116       21.9077  -30.2999  -43.0127 H         1 UNK         0.0612 
    117 H117       21.0425  -30.6014  -44.5025 H         1 UNK         0.0612 
@<TRIPOS>BOND
     1    1    2 1    
     2    1   62 1    
     3    1   63 1    
     4    1   64 1    
     5    2    3 2    
     6    2    4 am   BACKBONE|DICT|INTERRES
     7    4    5 1    
     8    4   65 1    
     9    5    6 1    
    10    5   25 1    
    11    5   66 1    
    12    6    7 1    
    13    6   67 1    
    14    6   68 1    
    15    7    8 1    
    16    8    9 1    
    17    8   69 1    
    18    8   70 1    
    19    9   10 ar   
    20    9   14 ar   
    21   10   11 ar   
    22   10   71 1    
    23   11   12 ar   
    24   11   61 1    
    25   12   13 ar   
    26   12   72 1    
    27   13   14 ar   
    28   13   15 1    
    29   14   73 1    
    30   15   16 1    
    31   15   74 1    
    32   15   75 1    
    33   16   17 1    
    34   17   18 1    
    35   17   76 1    
    36   17   77 1    
    37   18   19 1    
    38   18   27 1    
    39   18   78 1    
    40   19   20 am   BACKBONE|DICT|INTERRES
    41   19   79 1    
    42   20   21 2    
    43   20   22 1    
    44   22   23 1    
    45   22   24 1    
    46   22   80 1    
    47   23   81 1    
    48   23   82 1    
    49   23   83 1    
    50   24   25 am   BACKBONE|DICT|INTERRES
    51   24   84 1    
    52   25   26 2    
    53   27   28 2    
    54   27   29 am   BACKBONE|DICT|INTERRES
    55   29   30 1    
    56   29   85 1    
    57   30   31 1    
    58   30   32 1    
    59   30   86 1    
    60   31   87 1    
    61   31   88 1    
    62   31   89 1    
    63   32   33 2    
    64   32   34 am   BACKBONE|DICT|INTERRES
    65   34   35 1    
    66   34   90 1    
    67   35   36 1    
    68   35   37 1    
    69   35   91 1    
    70   36   92 1    
    71   36   93 1    
    72   36   94 1    
    73   37   38 2    
    74   37   39 am   BACKBONE|DICT|INTERRES
    75   39   40 1    
    76   39   95 1    
    77   40   41 1    
    78   40   42 1    
    79   40   96 1    
    80   41   97 1    
    81   41   98 1    
    82   41   99 1    
    83   42   43 2    
    84   42   44 am   BACKBONE|DICT|INTERRES
    85   44   45 1    
    86   44  100 1    
    87   45   46 1    
    88   45   47 1    
    89   45  101 1    
    90   46  102 1    
    91   46  103 1    
    92   46  104 1    
    93   47   48 2    
    94   47   49 am   BACKBONE|DICT|INTERRES
    95   49   50 1    
    96   49  105 1    
    97   50   51 1    
    98   50   52 1    
    99   50  106 1    
   100   51  107 1    
   101   51  108 1    
   102   51  109 1    
   103   52   53 2    
   104   52   54 am   BACKBONE|DICT|INTERRES
   105   54   55 1    
   106   54  110 1    
   107   55   56 1    
   108   55   59 1    
   109   55  111 1    
   110   56   57 am   BACKBONE|DICT|INTERRES
   111   56   58 2    
   112   57  112 1    
   113   57  113 1    
   114   59   60 1    
   115   59  114 1    
   116   59  115 1    
   117   60   61 1    
   118   61  116 1    
   119   61  117 1    
@<TRIPOS>SUBSTRUCTURE
     1 UNK         1 GROUP             0       ****    0 ROOT    
