@<TRIPOS>MOLECULE
3R8
117   119    1
SMALL
USER_CHARGES


@<TRIPOS>ATOM
      1 CA         17.7249  -27.1710  -41.5068 C.3       0 UNK        -0.2013 
      2 C          18.0067  -26.6431  -42.9040 C.2       0 UNK         0.4866 
      3 O          19.1114  -26.8318  -43.4133 O.2       0 UNK        -0.5176 
      4 N          17.0112  -25.9776  -43.5037 N.am      1 UNK        -0.4884 
      5 CA         16.9710  -25.4771  -44.8860 C.3       1 UNK         0.0853 
      6 C6         16.7836  -26.6077  -45.9412 C.3       10 UNK        -0.0849 
      7 S7         15.4883  -27.8304  -45.5059 S.3       10 UNK        -0.2776 
      8 C8         16.2323  -29.4251  -46.0004 C.3       10 UNK         0.0316 
      9 C9         17.3972  -29.8351  -45.1068 C.ar      10 UNK        -0.0863 
     10 C10        17.1851  -30.5859  -43.9478 C.ar      10 UNK        -0.1009 
     11 C11        18.2604  -30.9601  -43.1329 C.ar      10 UNK        -0.0712 
     12 C12        19.5528  -30.5362  -43.4745 C.ar      10 UNK        -0.0894 
     13 C13        19.7823  -29.7659  -44.6184 C.ar      10 UNK        -0.0745 
     14 C14        18.6976  -29.4673  -45.4513 C.ar      10 UNK        -0.0972 
     15 C15        21.1962  -29.2333  -44.8802 C.3       10 UNK         0.0209 
     16 S16        21.3814  -28.2566  -46.4135 S.3       10 UNK        -0.2568 
     17 C17        22.8357  -27.2085  -46.0735 C.3       10 UNK        -0.0983 
     18 CA         22.5241  -25.7468  -45.6259 C.3       3 UNK         0.0876 
     19 N          21.2789  -25.2146  -46.1966 N.am      3 UNK        -0.4424 
     20 C          21.0312  -23.9230  -46.4515 C.2       2 UNK         0.4918 
     21 O          21.8511  -23.0216  -46.2765 O.2       2 UNK        -0.4875 
     22 CA         19.6283  -23.5709  -46.9803 C.3       2 UNK         0.0481 
     23 CB         19.6214  -23.5796  -48.5172 C.3       2 UNK        -0.1831 
     24 N          18.5632  -24.4516  -46.4849 N.am      2 UNK        -0.4498 
     25 C          18.1413  -24.5097  -45.2112 C.2       1 UNK         0.5027 
     26 O          18.6305  -23.8179  -44.3140 O.2       1 UNK        -0.4969 
     27 C          22.6286  -25.5433  -44.0967 C.2       3 UNK         0.5005 
     28 O          23.6935  -25.8121  -43.5397 O.2       3 UNK        -0.5279 
     29 N          21.5614  -25.0427  -43.4527 N.am      4 UNK        -0.4463 
     30 CA         21.4754  -24.6432  -42.0433 C.3       4 UNK         0.0283 
     31 CB         22.3402  -23.3916  -41.7832 C.3       4 UNK        -0.1875 
     32 C          21.7733  -25.7958  -41.0663 C.2       4 UNK         0.4949 
     33 O          22.5507  -25.6246  -40.1259 O.2       4 UNK        -0.5039 
     34 N          21.1313  -26.9455  -41.3162 N.am      5 UNK        -0.4663 
     35 CA         21.2037  -28.1865  -40.5354 C.3       5 UNK         0.0242 
     36 CB         20.5836  -28.0018  -39.1328 C.3       5 UNK        -0.1982 
     37 C          22.6210  -28.7908  -40.4851 C.2       5 UNK         0.5017 
     38 O          23.0971  -29.1721  -39.4149 O.2       5 UNK        -0.5012 
     39 N          23.2648  -28.8775  -41.6551 N.am      6 UNK        -0.4439 
     40 CA         24.5565  -29.5377  -41.8504 C.3       6 UNK         0.0297 
     41 CB         25.0692  -29.2147  -43.2633 C.3       6 UNK        -0.2006 
     42 C          24.4806  -31.0643  -41.6541 C.2       6 UNK         0.4892 
     43 O          23.4273  -31.6664  -41.8822 O.2       6 UNK        -0.5089 
     44 N          25.6292  -31.6552  -41.2941 N.am      7 UNK        -0.4243 
     45 CA         25.8746  -33.0925  -41.1268 C.3       7 UNK         0.0196 
     46 CB         25.8279  -33.8079  -42.4980 C.3       7 UNK        -0.2007 
     47 C          24.9696  -33.7236  -40.0488 C.2       7 UNK         0.5020 
     48 O          24.8575  -33.1682  -38.9543 O.2       7 UNK        -0.5147 
     49 N          24.3441  -34.8672  -40.3639 N.am      8 UNK        -0.4734 
     50 CA         23.4792  -35.6533  -39.4724 C.3       8 UNK         0.0238 
     51 CB         23.1224  -36.9786  -40.1664 C.3       8 UNK        -0.1912 
     52 C          22.2016  -34.9304  -39.0026 C.2       8 UNK         0.5038 
     53 O          21.5812  -35.3780  -38.0371 O.2       8 UNK        -0.5046 
     54 N          21.8401  -33.8322  -39.6766 N.am      9 UNK        -0.4200 
     55 CA         20.7833  -32.8979  -39.2694 C.3       9 UNK         0.0839 
     56 C          21.1171  -32.0969  -37.9726 C.2       9 UNK         0.5513 
     57 N          22.3759  -31.9949  -37.5588 N.am      9 UNK        -0.7519 
     58 O          20.2167  -31.5816  -37.3160 O.2       9 UNK        -0.4960 
     59 C59        20.4309  -31.9651  -40.4540 C.3       10 UNK        -0.0876 
     60 S60        18.7593  -31.2332  -40.3733 S.3       10 UNK        -0.2414 
     61 C61        18.0024  -31.8476  -41.9149 C.3       10 UNK         0.0169 
     62 H62        18.1273  -28.1781  -41.3982 H         1 UNK         0.0903 
     63 H63        18.1915  -26.5258  -40.7639 H         1 UNK         0.0903 
     64 H64        16.6562  -27.2162  -41.2990 H         1 UNK         0.0903 
     65 H65        16.1539  -25.8369  -42.9885 H         1 UNK         0.3096 
     66 H66        16.0778  -24.8522  -44.9326 H         1 UNK         0.1121 
     67 H67        16.5039  -26.1843  -46.9073 H         1 UNK         0.0849 
     68 H68        17.7314  -27.1124  -46.0983 H         1 UNK         0.0849 
     69 H69        15.4600  -30.1951  -45.9679 H         1 UNK         0.0865 
     70 H70        16.5526  -29.3676  -47.0420 H         1 UNK         0.0865 
     71 H71        16.1799  -30.8901  -43.6894 H         1 UNK         0.1346 
     72 H72        20.3931  -30.7924  -42.8487 H         1 UNK         0.1412 
     73 H73        18.8459  -28.9135  -46.3640 H         1 UNK         0.1426 
     74 H74        21.4706  -28.5983  -44.0378 H         1 UNK         0.0716 
     75 H75        21.9045  -30.0628  -44.8994 H         1 UNK         0.0716 
     76 H76        23.5036  -27.7211  -45.3799 H         1 UNK         0.0695 
     77 H77        23.3929  -27.1654  -47.0104 H         1 UNK         0.0695 
     78 H78        23.3380  -25.1350  -46.0224 H         1 UNK         0.0983 
     79 H79        20.5571  -25.8993  -46.3719 H         1 UNK         0.3095 
     80 H80        19.4001  -22.5557  -46.6490 H         1 UNK         0.0454 
     81 H81        18.6638  -23.2414  -48.9130 H         1 UNK         0.0851 
     82 H82        20.3865  -22.9108  -48.9143 H         1 UNK         0.0851 
     83 H83        19.8199  -24.5743  -48.9184 H         1 UNK         0.0851 
     84 H84        18.1098  -25.0350  -47.1728 H         1 UNK         0.2976 
     85 H85        20.7084  -24.9138  -43.9835 H         1 UNK         0.3116 
     86 H86        20.4346  -24.3629  -41.8736 H         1 UNK         0.0646 
     87 H87        22.1932  -23.0189  -40.7688 H         1 UNK         0.0847 
     88 H88        22.0812  -22.5821  -42.4656 H         1 UNK         0.0847 
     89 H89        23.4037  -23.6027  -41.9007 H         1 UNK         0.0847 
     90 H90        20.5114  -26.9635  -42.1252 H         1 UNK         0.3040 
     91 H91        20.5847  -28.9065  -41.0707 H         1 UNK         0.1015 
     92 H92        21.1667  -27.3164  -38.5172 H         1 UNK         0.0786 
     93 H93        20.5372  -28.9535  -38.6016 H         1 UNK         0.0786 
     94 H94        19.5657  -27.6200  -39.1879 H         1 UNK         0.0786 
     95 H95        22.8202  -28.4974  -42.4755 H         1 UNK         0.3172 
     96 H96        25.2569  -29.1255  -41.1208 H         1 UNK         0.0595 
     97 H97        24.4045  -29.6086  -44.0331 H         1 UNK         0.0839 
     98 H98        26.0543  -29.6511  -43.4334 H         1 UNK         0.0839 
     99 H99        25.1657  -28.1395  -43.4158 H         1 UNK         0.0839 
    100 H100       26.4237  -31.0606  -41.1030 H         1 UNK         0.2998 
    101 H101       26.8929  -33.1837  -40.7457 H         1 UNK         0.0822 
    102 H102       26.4994  -33.3276  -43.2101 H         1 UNK         0.0787 
    103 H103       26.1492  -34.8472  -42.4178 H         1 UNK         0.0787 
    104 H104       24.8283  -33.7969  -42.9347 H         1 UNK         0.0787 
    105 H105       24.4870  -35.2395  -41.2921 H         1 UNK         0.3055 
    106 H106       24.0562  -35.8810  -38.5733 H         1 UNK         0.1106 
    107 H107       22.5083  -37.6068  -39.5193 H         1 UNK         0.0828 
    108 H108       22.5609  -36.8138  -41.0869 H         1 UNK         0.0828 
    109 H109       24.0159  -37.5520  -40.4140 H         1 UNK         0.0828 
    110 H110       22.4317  -33.5287  -40.4379 H         1 UNK         0.2931 
    111 H111       19.9030  -33.5045  -39.0475 H         1 UNK         0.0412 
    112 H112       22.5758  -31.4738  -36.7204 H         1 UNK         0.3472 
    113 H113       23.1366  -32.4043  -38.0892 H         1 UNK         0.3472 
    114 H114       20.5114  -32.5265  -41.3858 H         1 UNK         0.0970 
    115 H115       21.1674  -31.1693  -40.5369 H         1 UNK         0.0970 
    116 H116       18.3447  -32.8616  -42.1249 H         1 UNK         0.0612 
    117 H117       16.9293  -31.9277  -41.7350 H         1 UNK         0.0612 
@<TRIPOS>BOND
     1    1    2 1    
     2    1   62 1    
     3    1   63 1    
     4    1   64 1    
     5    2    3 2    
     6    2    4 am   BACKBONE|DICT|INTERRES
     7    4    5 1    
     8    4   65 1    
     9    5    6 1    
    10    5   25 1    
    11    5   66 1    
    12    6    7 1    
    13    6   67 1    
    14    6   68 1    
    15    7    8 1    
    16    8    9 1    
    17    8   69 1    
    18    8   70 1    
    19    9   10 ar   
    20    9   14 ar   
    21   10   11 ar   
    22   10   71 1    
    23   11   12 ar   
    24   11   61 1    
    25   12   13 ar   
    26   12   72 1    
    27   13   14 ar   
    28   13   15 1    
    29   14   73 1    
    30   15   16 1    
    31   15   74 1    
    32   15   75 1    
    33   16   17 1    
    34   17   18 1    
    35   17   76 1    
    36   17   77 1    
    37   18   19 1    
    38   18   27 1    
    39   18   78 1    
    40   19   20 am   BACKBONE|DICT|INTERRES
    41   19   79 1    
    42   20   21 2    
    43   20   22 1    
    44   22   23 1    
    45   22   24 1    
    46   22   80 1    
    47   23   81 1    
    48   23   82 1    
    49   23   83 1    
    50   24   25 am   BACKBONE|DICT|INTERRES
    51   24   84 1    
    52   25   26 2    
    53   27   28 2    
    54   27   29 am   BACKBONE|DICT|INTERRES
    55   29   30 1    
    56   29   85 1    
    57   30   31 1    
    58   30   32 1    
    59   30   86 1    
    60   31   87 1    
    61   31   88 1    
    62   31   89 1    
    63   32   33 2    
    64   32   34 am   BACKBONE|DICT|INTERRES
    65   34   35 1    
    66   34   90 1    
    67   35   36 1    
    68   35   37 1    
    69   35   91 1    
    70   36   92 1    
    71   36   93 1    
    72   36   94 1    
    73   37   38 2    
    74   37   39 am   BACKBONE|DICT|INTERRES
    75   39   40 1    
    76   39   95 1    
    77   40   41 1    
    78   40   42 1    
    79   40   96 1    
    80   41   97 1    
    81   41   98 1    
    82   41   99 1    
    83   42   43 2    
    84   42   44 am   BACKBONE|DICT|INTERRES
    85   44   45 1    
    86   44  100 1    
    87   45   46 1    
    88   45   47 1    
    89   45  101 1    
    90   46  102 1    
    91   46  103 1    
    92   46  104 1    
    93   47   48 2    
    94   47   49 am   BACKBONE|DICT|INTERRES
    95   49   50 1    
    96   49  105 1    
    97   50   51 1    
    98   50   52 1    
    99   50  106 1    
   100   51  107 1    
   101   51  108 1    
   102   51  109 1    
   103   52   53 2    
   104   52   54 am   BACKBONE|DICT|INTERRES
   105   54   55 1    
   106   54  110 1    
   107   55   56 1    
   108   55   59 1    
   109   55  111 1    
   110   56   57 am   BACKBONE|DICT|INTERRES
   111   56   58 2    
   112   57  112 1    
   113   57  113 1    
   114   59   60 1    
   115   59  114 1    
   116   59  115 1    
   117   60   61 1    
   118   61  116 1    
   119   61  117 1    
@<TRIPOS>SUBSTRUCTURE
     1 UNK         1 GROUP             0       ****    0 ROOT    
