@<TRIPOS>MOLECULE
3R8
117   119    1
SMALL
USER_CHARGES


@<TRIPOS>ATOM
      1 CA         12.7779  -24.0536  -46.8999 C.3       0 UNK        -0.2013 
      2 C          14.2356  -23.9406  -47.3201 C.2       0 UNK         0.4866 
      3 O          14.7000  -22.8447  -47.6346 O.2       0 UNK        -0.5176 
      4 N          14.9633  -25.0650  -47.3256 N.am      1 UNK        -0.4884 
      5 CA         16.3833  -25.1468  -47.6969 C.3       1 UNK         0.0853 
      6 C6         16.7667  -26.5735  -48.1716 C.3       10 UNK        -0.0849 
      7 S7         16.4226  -27.8918  -46.9520 S.3       10 UNK        -0.2776 
      8 C8         18.1045  -28.2093  -46.3230 C.3       10 UNK         0.0316 
      9 C9         18.1339  -29.1475  -45.1212 C.ar      10 UNK        -0.0863 
     10 C10        19.0803  -30.1744  -45.0655 C.ar      10 UNK        -0.1009 
     11 C11        19.1572  -31.0138  -43.9508 C.ar      10 UNK        -0.0712 
     12 C12        18.2804  -30.8188  -42.8794 C.ar      10 UNK        -0.0894 
     13 C13        17.3290  -29.7944  -42.9159 C.ar      10 UNK        -0.0745 
     14 C14        17.2578  -28.9692  -44.0450 C.ar      10 UNK        -0.0972 
     15 C15        16.3672  -29.6123  -41.7442 C.3       10 UNK         0.0209 
     16 S16        16.0951  -27.8693  -41.2763 S.3       10 UNK        -0.2568 
     17 C17        17.7198  -27.3914  -40.5940 C.3       10 UNK        -0.0983 
     18 CA         18.6633  -26.7394  -41.6414 C.3       3 UNK         0.0876 
     19 N          18.0188  -25.6304  -42.3511 N.am      3 UNK        -0.4424 
     20 C          18.3708  -25.1727  -43.5577 C.2       2 UNK         0.4918 
     21 O          19.3340  -25.6016  -44.1952 O.2       2 UNK        -0.4875 
     22 CA         17.4968  -24.0440  -44.1294 C.3       2 UNK         0.0481 
     23 CB         18.2892  -22.7301  -44.2794 C.3       2 UNK        -0.1831 
     24 N          16.8264  -24.4431  -45.3736 N.am      2 UNK        -0.4498 
     25 C          17.3425  -24.6214  -46.6018 C.2       1 UNK         0.5027 
     26 O          18.5127  -24.3893  -46.9075 O.2       1 UNK        -0.4969 
     27 C          20.0011  -26.2857  -41.0205 C.2       3 UNK         0.5005 
     28 O          20.0834  -26.0752  -39.8079 O.2       3 UNK        -0.5279 
     29 N          21.0178  -26.1076  -41.8738 N.am      4 UNK        -0.4463 
     30 CA         22.3939  -25.7748  -41.5016 C.3       4 UNK         0.0283 
     31 CB         23.2031  -25.5055  -42.7805 C.3       4 UNK        -0.1875 
     32 C          23.0561  -26.8924  -40.6781 C.2       4 UNK         0.4949 
     33 O          22.7256  -28.0676  -40.8534 O.2       4 UNK        -0.5039 
     34 N          24.0157  -26.5135  -39.8254 N.am      5 UNK        -0.4663 
     35 CA         24.7515  -27.3998  -38.9150 C.3       5 UNK         0.0242 
     36 CB         25.3316  -26.5543  -37.7649 C.3       5 UNK        -0.1982 
     37 C          25.8243  -28.2607  -39.6184 C.2       5 UNK         0.5017 
     38 O          26.9653  -28.3259  -39.1563 O.2       5 UNK        -0.5012 
     39 N          25.4416  -28.9091  -40.7235 N.am      6 UNK        -0.4439 
     40 CA         26.2355  -29.9130  -41.4290 C.3       6 UNK         0.0297 
     41 CB         25.6737  -30.0847  -42.8493 C.3       6 UNK        -0.2006 
     42 C          26.1885  -31.2478  -40.6722 C.2       6 UNK         0.4892 
     43 O          25.1679  -31.5593  -40.0541 O.2       6 UNK        -0.5089 
     44 N          27.2638  -32.0398  -40.7753 N.am      7 UNK        -0.4243 
     45 CA         27.4102  -33.3418  -40.1086 C.3       7 UNK         0.0196 
     46 CB         28.8210  -33.8918  -40.3738 C.3       7 UNK        -0.2007 
     47 C          26.3448  -34.3828  -40.5030 C.2       7 UNK         0.5020 
     48 O          26.0136  -35.2469  -39.6913 O.2       7 UNK        -0.5147 
     49 N          25.8175  -34.2722  -41.7289 N.am      8 UNK        -0.4734 
     50 CA         24.7261  -35.1024  -42.2417 C.3       8 UNK         0.0238 
     51 CB         24.7906  -35.1081  -43.7785 C.3       8 UNK        -0.1912 
     52 C          23.3314  -34.6448  -41.7733 C.2       8 UNK         0.5038 
     53 O          22.3916  -35.4349  -41.8757 O.2       8 UNK        -0.5046 
     54 N          23.2081  -33.3944  -41.3074 N.am      9 UNK        -0.4200 
     55 CA         21.9336  -32.7565  -40.9381 C.3       9 UNK         0.0839 
     56 C          21.7687  -32.5721  -39.4071 C.2       9 UNK         0.5513 
     57 N          22.8403  -32.4140  -38.6411 N.am      9 UNK        -0.7519 
     58 O          20.6478  -32.5871  -38.9053 O.2       9 UNK        -0.4960 
     59 C59        21.7277  -31.4060  -41.6745 C.3       10 UNK        -0.0876 
     60 S60        21.8423  -31.5586  -43.4909 S.3       10 UNK        -0.2414 
     61 C61        20.1747  -32.1445  -43.9239 C.3       10 UNK         0.0169 
     62 H62        12.1280  -23.7184  -47.7078 H         1 UNK         0.0903 
     63 H63        12.5039  -25.0779  -46.6477 H         1 UNK         0.0903 
     64 H64        12.5887  -23.4273  -46.0285 H         1 UNK         0.0903 
     65 H65        14.5368  -25.9440  -47.0639 H         1 UNK         0.3096 
     66 H66        16.5333  -24.4821  -48.5513 H         1 UNK         0.1121 
     67 H67        17.8146  -26.6107  -48.4763 H         1 UNK         0.0849 
     68 H68        16.2014  -26.8112  -49.0742 H         1 UNK         0.0849 
     69 H69        18.7060  -28.6140  -47.1386 H         1 UNK         0.0865 
     70 H70        18.5718  -27.2681  -46.0365 H         1 UNK         0.0865 
     71 H71        19.7679  -30.3209  -45.8876 H         1 UNK         0.1346 
     72 H72        18.3351  -31.4718  -42.0189 H         1 UNK         0.1412 
     73 H73        16.5263  -28.1738  -44.0809 H         1 UNK         0.1426 
     74 H74        16.7150  -30.1597  -40.8666 H         1 UNK         0.0716 
     75 H75        15.4069  -30.0502  -42.0187 H         1 UNK         0.0716 
     76 H76        18.1931  -28.2691  -40.1497 H         1 UNK         0.0695 
     77 H77        17.5281  -26.7015  -39.7700 H         1 UNK         0.0695 
     78 H78        18.9131  -27.5103  -42.3727 H         1 UNK         0.0983 
     79 H79        17.2270  -25.2162  -41.8814 H         1 UNK         0.3095 
     80 H80        16.6900  -23.8486  -43.4210 H         1 UNK         0.0454 
     81 H81        19.1669  -22.8492  -44.9150 H         1 UNK         0.0851 
     82 H82        18.6443  -22.3813  -43.3091 H         1 UNK         0.0851 
     83 H83        17.6713  -21.9387  -44.7033 H         1 UNK         0.0851 
     84 H84        15.8504  -24.6833  -45.2714 H         1 UNK         0.2976 
     85 H85        20.8263  -26.2351  -42.8614 H         1 UNK         0.3116 
     86 H86        22.3677  -24.8638  -40.9000 H         1 UNK         0.0646 
     87 H87        23.2526  -26.3888  -43.4189 H         1 UNK         0.0847 
     88 H88        24.2284  -25.2177  -42.5442 H         1 UNK         0.0847 
     89 H89        22.7670  -24.6941  -43.3638 H         1 UNK         0.0847 
     90 H90        24.2584  -25.5337  -39.7814 H         1 UNK         0.3040 
     91 H91        24.0383  -28.1021  -38.4767 H         1 UNK         0.1015 
     92 H92        24.5491  -26.0031  -37.2428 H         1 UNK         0.0786 
     93 H93        26.0678  -25.8345  -38.1249 H         1 UNK         0.0786 
     94 H94        25.8258  -27.1847  -37.0242 H         1 UNK         0.0786 
     95 H95        24.4630  -28.8231  -40.9857 H         1 UNK         0.3172 
     96 H96        27.2703  -29.5700  -41.4943 H         1 UNK         0.0595 
     97 H97        24.6421  -30.4382  -42.8364 H         1 UNK         0.0839 
     98 H98        26.2589  -30.8068  -43.4200 H         1 UNK         0.0839 
     99 H99        25.6961  -29.1443  -43.4004 H         1 UNK         0.0839 
    100 H100       28.0542  -31.7177  -41.3160 H         1 UNK         0.2998 
    101 H101       27.3068  -33.1703  -39.0349 H         1 UNK         0.0822 
    102 H102       29.5891  -33.2119  -40.0046 H         1 UNK         0.0787 
    103 H103       28.9687  -34.8478  -39.8691 H         1 UNK         0.0787 
    104 H104       28.9976  -34.0548  -41.4378 H         1 UNK         0.0787 
    105 H105       26.1607  -33.5398  -42.3333 H         1 UNK         0.3055 
    106 H106       24.8658  -36.1273  -41.8896 H         1 UNK         0.1106 
    107 H107       24.0152  -35.7498  -44.1995 H         1 UNK         0.0828 
    108 H108       24.6452  -34.1095  -44.1929 H         1 UNK         0.0828 
    109 H109       25.7489  -35.4858  -44.1354 H         1 UNK         0.0828 
    110 H110       24.0378  -32.8313  -41.1690 H         1 UNK         0.2931 
    111 H111       21.1102  -33.4047  -41.2423 H         1 UNK         0.0412 
    112 H112       23.7563  -32.2896  -39.0631 H         1 UNK         0.3472 
    113 H113       22.7258  -32.3057  -37.6462 H         1 UNK         0.3472 
    114 H114       20.7671  -30.9593  -41.4134 H         1 UNK         0.0970 
    115 H115       22.4855  -30.6890  -41.3541 H         1 UNK         0.0970 
    116 H116       19.8656  -32.9301  -43.2333 H         1 UNK         0.0612 
    117 H117       20.2180  -32.6113  -44.9090 H         1 UNK         0.0612 
@<TRIPOS>BOND
     1    1    2 1    
     2    1   62 1    
     3    1   63 1    
     4    1   64 1    
     5    2    3 2    
     6    2    4 am   BACKBONE|DICT|INTERRES
     7    4    5 1    
     8    4   65 1    
     9    5    6 1    
    10    5   25 1    
    11    5   66 1    
    12    6    7 1    
    13    6   67 1    
    14    6   68 1    
    15    7    8 1    
    16    8    9 1    
    17    8   69 1    
    18    8   70 1    
    19    9   10 ar   
    20    9   14 ar   
    21   10   11 ar   
    22   10   71 1    
    23   11   12 ar   
    24   11   61 1    
    25   12   13 ar   
    26   12   72 1    
    27   13   14 ar   
    28   13   15 1    
    29   14   73 1    
    30   15   16 1    
    31   15   74 1    
    32   15   75 1    
    33   16   17 1    
    34   17   18 1    
    35   17   76 1    
    36   17   77 1    
    37   18   19 1    
    38   18   27 1    
    39   18   78 1    
    40   19   20 am   BACKBONE|DICT|INTERRES
    41   19   79 1    
    42   20   21 2    
    43   20   22 1    
    44   22   23 1    
    45   22   24 1    
    46   22   80 1    
    47   23   81 1    
    48   23   82 1    
    49   23   83 1    
    50   24   25 am   BACKBONE|DICT|INTERRES
    51   24   84 1    
    52   25   26 2    
    53   27   28 2    
    54   27   29 am   BACKBONE|DICT|INTERRES
    55   29   30 1    
    56   29   85 1    
    57   30   31 1    
    58   30   32 1    
    59   30   86 1    
    60   31   87 1    
    61   31   88 1    
    62   31   89 1    
    63   32   33 2    
    64   32   34 am   BACKBONE|DICT|INTERRES
    65   34   35 1    
    66   34   90 1    
    67   35   36 1    
    68   35   37 1    
    69   35   91 1    
    70   36   92 1    
    71   36   93 1    
    72   36   94 1    
    73   37   38 2    
    74   37   39 am   BACKBONE|DICT|INTERRES
    75   39   40 1    
    76   39   95 1    
    77   40   41 1    
    78   40   42 1    
    79   40   96 1    
    80   41   97 1    
    81   41   98 1    
    82   41   99 1    
    83   42   43 2    
    84   42   44 am   BACKBONE|DICT|INTERRES
    85   44   45 1    
    86   44  100 1    
    87   45   46 1    
    88   45   47 1    
    89   45  101 1    
    90   46  102 1    
    91   46  103 1    
    92   46  104 1    
    93   47   48 2    
    94   47   49 am   BACKBONE|DICT|INTERRES
    95   49   50 1    
    96   49  105 1    
    97   50   51 1    
    98   50   52 1    
    99   50  106 1    
   100   51  107 1    
   101   51  108 1    
   102   51  109 1    
   103   52   53 2    
   104   52   54 am   BACKBONE|DICT|INTERRES
   105   54   55 1    
   106   54  110 1    
   107   55   56 1    
   108   55   59 1    
   109   55  111 1    
   110   56   57 am   BACKBONE|DICT|INTERRES
   111   56   58 2    
   112   57  112 1    
   113   57  113 1    
   114   59   60 1    
   115   59  114 1    
   116   59  115 1    
   117   60   61 1    
   118   61  116 1    
   119   61  117 1    
@<TRIPOS>SUBSTRUCTURE
     1 UNK         1 GROUP             0       ****    0 ROOT    
