@<TRIPOS>MOLECULE
3R8
117   119    1
SMALL
USER_CHARGES


@<TRIPOS>ATOM
      1 CA         13.0753  -28.1973  -41.3414 C.3       0 UNK        -0.2013 
      2 C          14.4076  -27.5220  -41.6307 C.2       0 UNK         0.4866 
      3 O          15.0096  -26.9414  -40.7265 O.2       0 UNK        -0.5176 
      4 N          14.8646  -27.5813  -42.8871 N.am      1 UNK        -0.4884 
      5 CA         16.1589  -27.0613  -43.3383 C.3       1 UNK         0.0853 
      6 C6         16.2085  -26.8438  -44.8805 C.3       10 UNK        -0.0849 
      7 S7         15.3317  -28.0507  -45.9477 S.3       10 UNK        -0.2776 
      8 C8         16.1388  -29.6613  -45.6278 C.3       10 UNK         0.0316 
      9 C9         17.6539  -29.7089  -45.8302 C.ar      10 UNK        -0.0863 
     10 C10        18.3993  -30.6197  -45.0748 C.ar      10 UNK        -0.1009 
     11 C11        19.7921  -30.6983  -45.1993 C.ar      10 UNK        -0.0712 
     12 C12        20.4341  -29.8501  -46.1080 C.ar      10 UNK        -0.0894 
     13 C13        19.7043  -28.9507  -46.8899 C.ar      10 UNK        -0.0745 
     14 C14        18.3145  -28.8924  -46.7546 C.ar      10 UNK        -0.0972 
     15 C15        20.4057  -28.0600  -47.9048 C.3       10 UNK         0.0209 
     16 S16        20.4723  -26.3219  -47.3662 S.3       10 UNK        -0.2568 
     17 C17        21.9781  -26.2784  -46.3348 C.3       10 UNK        -0.0983 
     18 CA         21.7323  -25.5313  -44.9940 C.3       3 UNK         0.0876 
     19 N          20.7675  -26.2280  -44.1255 N.am      3 UNK        -0.4424 
     20 C          20.9819  -27.3805  -43.4676 C.2       2 UNK         0.4918 
     21 O          22.0609  -27.9713  -43.4812 O.2       2 UNK        -0.4875 
     22 CA         19.8276  -27.9686  -42.6374 C.3       2 UNK         0.0481 
     23 CB         20.1607  -27.9796  -41.1343 C.3       2 UNK        -0.1831 
     24 N          18.5438  -27.3003  -42.8706 N.am      2 UNK        -0.4498 
     25 C          17.3498  -27.9073  -42.8359 C.2       1 UNK         0.5027 
     26 O          17.1778  -29.0717  -42.4664 O.2       1 UNK        -0.4969 
     27 C          23.0432  -25.1368  -44.2657 C.2       3 UNK         0.5005 
     28 O          24.0938  -25.0257  -44.9017 O.2       3 UNK        -0.5279 
     29 N          22.9540  -24.9312  -42.9408 N.am      4 UNK        -0.4463 
     30 CA         24.0018  -24.5841  -41.9700 C.3       4 UNK         0.0283 
     31 CB         24.6178  -23.2047  -42.2756 C.3       4 UNK        -0.1875 
     32 C          25.0988  -25.6501  -41.7884 C.2       4 UNK         0.4949 
     33 O          25.3818  -26.0357  -40.6543 O.2       4 UNK        -0.5039 
     34 N          25.7118  -26.0870  -42.8936 N.am      5 UNK        -0.4663 
     35 CA         26.8471  -27.0100  -42.9206 C.3       5 UNK         0.0242 
     36 CB         27.5150  -26.9456  -44.3035 C.3       5 UNK        -0.1982 
     37 C          26.4723  -28.4585  -42.5733 C.2       5 UNK         0.5017 
     38 O          27.2762  -29.1519  -41.9493 O.2       5 UNK        -0.5012 
     39 N          25.2702  -28.8928  -42.9722 N.am      6 UNK        -0.4439 
     40 CA         24.7617  -30.2479  -42.7605 C.3       6 UNK         0.0297 
     41 CB         24.0980  -30.7455  -44.0558 C.3       6 UNK        -0.2006 
     42 C          23.8308  -30.2769  -41.5380 C.2       6 UNK         0.4892 
     43 O          22.6641  -30.6582  -41.6411 O.2       6 UNK        -0.5089 
     44 N          24.3848  -29.8888  -40.3803 N.am      7 UNK        -0.4243 
     45 CA         23.7050  -29.7854  -39.0822 C.3       7 UNK         0.0196 
     46 CB         24.7021  -29.2559  -38.0395 C.3       7 UNK        -0.2007 
     47 C          23.0378  -31.0823  -38.5823 C.2       7 UNK         0.5020 
     48 O          22.1502  -31.0093  -37.7327 O.2       7 UNK        -0.5147 
     49 N          23.4345  -32.2363  -39.1384 N.am      8 UNK        -0.4734 
     50 CA         22.8185  -33.5496  -38.9242 C.3       8 UNK         0.0238 
     51 CB         23.6246  -34.6123  -39.6885 C.3       8 UNK        -0.1912 
     52 C          21.3281  -33.6233  -39.3143 C.2       8 UNK         0.5038 
     53 O          20.6136  -34.4564  -38.7548 O.2       8 UNK        -0.5046 
     54 N          20.8782  -32.7529  -40.2312 N.am      9 UNK        -0.4200 
     55 CA         19.4531  -32.5557  -40.5454 C.3       9 UNK         0.0839 
     56 C          18.6490  -31.8194  -39.4310 C.2       9 UNK         0.5513 
     57 N          19.2743  -31.2189  -38.4242 N.am      9 UNK        -0.7519 
     58 O          17.4218  -31.8080  -39.4736 O.2       9 UNK        -0.4960 
     59 C59        19.2489  -31.8583  -41.9139 C.3       10 UNK        -0.0876 
     60 S60        19.7874  -32.8782  -43.3292 S.3       10 UNK        -0.2414 
     61 C61        20.6573  -31.6516  -44.3696 C.3       10 UNK         0.0169 
     62 H62        12.6463  -28.6525  -42.2341 H         1 UNK         0.0903 
     63 H63        13.2065  -28.9781  -40.5926 H         1 UNK         0.0903 
     64 H64        12.3614  -27.4702  -40.9550 H         1 UNK         0.0903 
     65 H65        14.3387  -28.0787  -43.5922 H         1 UNK         0.3096 
     66 H66        16.2785  -26.0797  -42.8728 H         1 UNK         0.1121 
     67 H67        17.2321  -26.7342  -45.2431 H         1 UNK         0.0849 
     68 H68        15.7444  -25.8797  -45.0941 H         1 UNK         0.0849 
     69 H69        15.8849  -29.9728  -44.6138 H         1 UNK         0.0865 
     70 H70        15.6879  -30.4029  -46.2882 H         1 UNK         0.0865 
     71 H71        17.8783  -31.2546  -44.3743 H         1 UNK         0.1346 
     72 H72        21.5101  -29.8928  -46.2084 H         1 UNK         0.1412 
     73 H73        17.7534  -28.1995  -47.3662 H         1 UNK         0.1426 
     74 H74        19.8632  -28.1083  -48.8501 H         1 UNK         0.0716 
     75 H75        21.4130  -28.4210  -48.1181 H         1 UNK         0.0716 
     76 H76        22.7458  -25.7808  -46.9298 H         1 UNK         0.0695 
     77 H77        22.3430  -27.2900  -46.1507 H         1 UNK         0.0695 
     78 H78        21.2710  -24.5736  -45.2412 H         1 UNK         0.0983 
     79 H79        19.8569  -25.8016  -44.0908 H         1 UNK         0.3095 
     80 H80        19.7389  -28.9980  -42.9785 H         1 UNK         0.0454 
     81 H81        20.2324  -26.9701  -40.7292 H         1 UNK         0.0851 
     82 H82        21.1133  -28.4771  -40.9484 H         1 UNK         0.0851 
     83 H83        19.4032  -28.5184  -40.5647 H         1 UNK         0.0851 
     84 H84        18.5768  -26.3249  -43.1216 H         1 UNK         0.2976 
     85 H85        22.0416  -25.0777  -42.5328 H         1 UNK         0.3116 
     86 H86        23.4906  -24.5020  -41.0093 H         1 UNK         0.0646 
     87 H87        25.1470  -23.1925  -43.2289 H         1 UNK         0.0847 
     88 H88        25.3357  -22.9205  -41.5050 H         1 UNK         0.0847 
     89 H89        23.8540  -22.4279  -42.3075 H         1 UNK         0.0847 
     90 H90        25.3728  -25.7248  -43.7834 H         1 UNK         0.3040 
     91 H91        27.5726  -26.6747  -42.1758 H         1 UNK         0.1015 
     92 H92        26.8281  -27.2410  -45.0979 H         1 UNK         0.0786 
     93 H93        28.3781  -27.6112  -44.3527 H         1 UNK         0.0786 
     94 H94        27.8705  -25.9391  -44.5252 H         1 UNK         0.0786 
     95 H95        24.6317  -28.2367  -43.4033 H         1 UNK         0.3172 
     96 H96        25.5845  -30.9324  -42.5437 H         1 UNK         0.0595 
     97 H97        23.6782  -31.7432  -43.9225 H         1 UNK         0.0839 
     98 H98        24.8211  -30.8069  -44.8690 H         1 UNK         0.0839 
     99 H99        23.2950  -30.0844  -44.3785 H         1 UNK         0.0839 
    100 H100       25.3532  -29.5985  -40.4032 H         1 UNK         0.2998 
    101 H101       22.9086  -29.0475  -39.1976 H         1 UNK         0.0822 
    102 H102       24.2232  -29.1314  -37.0670 H         1 UNK         0.0787 
    103 H103       25.5434  -29.9368  -37.9045 H         1 UNK         0.0787 
    104 H104       25.0991  -28.2823  -38.3293 H         1 UNK         0.0787 
    105 H105       24.1671  -32.1897  -39.8311 H         1 UNK         0.3055 
    106 H106       22.8799  -33.7698  -37.8561 H         1 UNK         0.1106 
    107 H107       23.2091  -35.6082  -39.5272 H         1 UNK         0.0828 
    108 H108       23.6181  -34.4275  -40.7636 H         1 UNK         0.0828 
    109 H109       24.6627  -34.6402  -39.3567 H         1 UNK         0.0828 
    110 H110       21.5276  -32.0988  -40.6558 H         1 UNK         0.2931 
    111 H111       18.9997  -33.5460  -40.6222 H         1 UNK         0.0412 
    112 H112       18.7249  -30.7593  -37.7159 H         1 UNK         0.3472 
    113 H113       20.2850  -31.2335  -38.3394 H         1 UNK         0.3472 
    114 H114       19.7846  -30.9106  -41.9146 H         1 UNK         0.0970 
    115 H115       18.1970  -31.6132  -42.0722 H         1 UNK         0.0970 
    116 H116       21.3173  -32.1989  -45.0439 H         1 UNK         0.0612 
    117 H117       21.2970  -31.0508  -43.7283 H         1 UNK         0.0612 
@<TRIPOS>BOND
     1    1    2 1    
     2    1   62 1    
     3    1   63 1    
     4    1   64 1    
     5    2    3 2    
     6    2    4 am   BACKBONE|DICT|INTERRES
     7    4    5 1    
     8    4   65 1    
     9    5    6 1    
    10    5   25 1    
    11    5   66 1    
    12    6    7 1    
    13    6   67 1    
    14    6   68 1    
    15    7    8 1    
    16    8    9 1    
    17    8   69 1    
    18    8   70 1    
    19    9   10 ar   
    20    9   14 ar   
    21   10   11 ar   
    22   10   71 1    
    23   11   12 ar   
    24   11   61 1    
    25   12   13 ar   
    26   12   72 1    
    27   13   14 ar   
    28   13   15 1    
    29   14   73 1    
    30   15   16 1    
    31   15   74 1    
    32   15   75 1    
    33   16   17 1    
    34   17   18 1    
    35   17   76 1    
    36   17   77 1    
    37   18   19 1    
    38   18   27 1    
    39   18   78 1    
    40   19   20 am   BACKBONE|DICT|INTERRES
    41   19   79 1    
    42   20   21 2    
    43   20   22 1    
    44   22   23 1    
    45   22   24 1    
    46   22   80 1    
    47   23   81 1    
    48   23   82 1    
    49   23   83 1    
    50   24   25 am   BACKBONE|DICT|INTERRES
    51   24   84 1    
    52   25   26 2    
    53   27   28 2    
    54   27   29 am   BACKBONE|DICT|INTERRES
    55   29   30 1    
    56   29   85 1    
    57   30   31 1    
    58   30   32 1    
    59   30   86 1    
    60   31   87 1    
    61   31   88 1    
    62   31   89 1    
    63   32   33 2    
    64   32   34 am   BACKBONE|DICT|INTERRES
    65   34   35 1    
    66   34   90 1    
    67   35   36 1    
    68   35   37 1    
    69   35   91 1    
    70   36   92 1    
    71   36   93 1    
    72   36   94 1    
    73   37   38 2    
    74   37   39 am   BACKBONE|DICT|INTERRES
    75   39   40 1    
    76   39   95 1    
    77   40   41 1    
    78   40   42 1    
    79   40   96 1    
    80   41   97 1    
    81   41   98 1    
    82   41   99 1    
    83   42   43 2    
    84   42   44 am   BACKBONE|DICT|INTERRES
    85   44   45 1    
    86   44  100 1    
    87   45   46 1    
    88   45   47 1    
    89   45  101 1    
    90   46  102 1    
    91   46  103 1    
    92   46  104 1    
    93   47   48 2    
    94   47   49 am   BACKBONE|DICT|INTERRES
    95   49   50 1    
    96   49  105 1    
    97   50   51 1    
    98   50   52 1    
    99   50  106 1    
   100   51  107 1    
   101   51  108 1    
   102   51  109 1    
   103   52   53 2    
   104   52   54 am   BACKBONE|DICT|INTERRES
   105   54   55 1    
   106   54  110 1    
   107   55   56 1    
   108   55   59 1    
   109   55  111 1    
   110   56   57 am   BACKBONE|DICT|INTERRES
   111   56   58 2    
   112   57  112 1    
   113   57  113 1    
   114   59   60 1    
   115   59  114 1    
   116   59  115 1    
   117   60   61 1    
   118   61  116 1    
   119   61  117 1    
@<TRIPOS>SUBSTRUCTURE
     1 UNK         1 GROUP             0       ****    0 ROOT    
