@<TRIPOS>MOLECULE
3R8
117   119    1
SMALL
USER_CHARGES


@<TRIPOS>ATOM
      1 CA         16.0721  -25.3626  -48.7748 C.3       0 UNK        -0.2013 
      2 C          16.9820  -26.3959  -48.1279 C.2       0 UNK         0.4866 
      3 O          17.9885  -26.7829  -48.7218 O.2       0 UNK        -0.5176 
      4 N          16.6367  -26.8459  -46.9144 N.am      1 UNK        -0.4884 
      5 CA         17.3886  -27.8510  -46.1508 C.3       1 UNK         0.0853 
      6 C6         16.5407  -28.4528  -45.0082 C.3       10 UNK        -0.0849 
      7 S7         15.1062  -29.4305  -45.5885 S.3       10 UNK        -0.2776 
      8 C8         14.3539  -30.0150  -44.0216 C.3       10 UNK         0.0316 
      9 C9         15.4152  -30.4312  -43.0142 C.ar      10 UNK        -0.0863 
     10 C10        16.1038  -31.6367  -43.1694 C.ar      10 UNK        -0.1009 
     11 C11        17.2258  -31.9126  -42.3824 C.ar      10 UNK        -0.0712 
     12 C12        17.6362  -30.9891  -41.4141 C.ar      10 UNK        -0.0894 
     13 C13        16.9414  -29.7890  -41.2397 C.ar      10 UNK        -0.0745 
     14 C14        15.8074  -29.5356  -42.0159 C.ar      10 UNK        -0.0972 
     15 C15        17.4551  -28.7287  -40.2749 C.3       10 UNK         0.0209 
     16 S16        17.8173  -27.1706  -41.1575 S.3       10 UNK        -0.2568 
     17 C17        19.5066  -26.7571  -40.6069 C.3       10 UNK        -0.0983 
     18 CA         20.6076  -27.1656  -41.6285 C.3       3 UNK         0.0876 
     19 N          20.3545  -26.6866  -42.9939 N.am      3 UNK        -0.4424 
     20 C          20.3162  -25.4224  -43.4295 C.2       2 UNK         0.4918 
     21 O          20.5245  -24.4403  -42.7171 O.2       2 UNK        -0.4875 
     22 CA         19.9875  -25.2088  -44.9210 C.3       2 UNK         0.0481 
     23 CB         21.2424  -25.4091  -45.7928 C.3       2 UNK        -0.1831 
     24 N          18.8470  -25.9879  -45.4334 N.am      2 UNK        -0.4498 
     25 C          18.7213  -27.3174  -45.5779 C.2       1 UNK         0.5027 
     26 O          19.5924  -28.1259  -45.2486 O.2       1 UNK        -0.4969 
     27 C          22.0266  -26.8091  -41.1246 C.2       3 UNK         0.5005 
     28 O          22.2140  -26.6325  -39.9180 O.2       3 UNK        -0.5279 
     29 N          23.0051  -26.6963  -42.0392 N.am      4 UNK        -0.4463 
     30 CA         24.3776  -26.2602  -41.7640 C.3       4 UNK         0.0283 
     31 CB         25.1566  -26.1318  -43.0825 C.3       4 UNK        -0.1875 
     32 C          25.0801  -27.2178  -40.7927 C.2       4 UNK         0.4949 
     33 O          25.3473  -28.3637  -41.1601 O.2       4 UNK        -0.5039 
     34 N          25.2680  -26.7522  -39.5479 N.am      5 UNK        -0.4663 
     35 CA         25.7722  -27.4876  -38.3762 C.3       5 UNK         0.0242 
     36 CB         27.2673  -27.8220  -38.5658 C.3       5 UNK        -0.1982 
     37 C          24.9440  -28.7410  -38.0122 C.2       5 UNK         0.5017 
     38 O          25.4584  -29.6241  -37.3248 O.2       5 UNK        -0.5012 
     39 N          23.7038  -28.8229  -38.5247 N.am      6 UNK        -0.4439 
     40 CA         22.8410  -30.0112  -38.5952 C.3       6 UNK         0.0297 
     41 CB         22.3476  -30.4171  -37.1912 C.3       6 UNK        -0.2006 
     42 C          23.4684  -31.1975  -39.3682 C.2       6 UNK         0.4892 
     43 O          23.0101  -32.3311  -39.2109 O.2       6 UNK        -0.5089 
     44 N          24.4955  -30.9246  -40.1860 N.am      7 UNK        -0.4243 
     45 CA         25.2580  -31.9058  -40.9556 C.3       7 UNK         0.0196 
     46 CB         26.7577  -31.6289  -40.7600 C.3       7 UNK        -0.2007 
     47 C          24.9028  -31.8650  -42.4479 C.2       7 UNK         0.5020 
     48 O          25.0265  -32.8933  -43.1141 O.2       7 UNK        -0.5147 
     49 N          24.4608  -30.7053  -42.9526 N.am      8 UNK        -0.4734 
     50 CA         24.0328  -30.5247  -44.3371 C.3       8 UNK         0.0238 
     51 CB         25.2275  -30.0303  -45.1755 C.3       8 UNK        -0.1912 
     52 C          22.8426  -29.5514  -44.4004 C.2       8 UNK         0.5038 
     53 O          23.0670  -28.3445  -44.4767 O.2       8 UNK        -0.5046 
     54 N          21.5855  -30.0127  -44.3917 N.am      9 UNK        -0.4200 
     55 CA         21.0824  -31.3348  -43.9893 C.3       9 UNK         0.0839 
     56 C          21.2837  -31.5776  -42.4678 C.2       9 UNK         0.5513 
     57 N          21.6381  -32.7887  -42.0651 N.am      9 UNK        -0.7519 
     58 O          21.1096  -30.6780  -41.6511 O.2       9 UNK        -0.4960 
     59 C59        19.5903  -31.4427  -44.3894 C.3       10 UNK        -0.0876 
     60 S60        18.8809  -33.1277  -44.2831 S.3       10 UNK        -0.2414 
     61 C61        18.0586  -33.1584  -42.6479 C.3       10 UNK         0.0169 
     62 H62        15.2210  -25.1136  -48.1411 H         1 UNK         0.0903 
     63 H63        16.6268  -24.4459  -48.9734 H         1 UNK         0.0903 
     64 H64        15.6893  -25.7411  -49.7222 H         1 UNK         0.0903 
     65 H65        15.7828  -26.5176  -46.4847 H         1 UNK         0.3096 
     66 H66        17.6557  -28.6606  -46.8343 H         1 UNK         0.1121 
     67 H67        16.1923  -27.6726  -44.3285 H         1 UNK         0.0849 
     68 H68        17.1716  -29.1174  -44.4160 H         1 UNK         0.0849 
     69 H69        13.7263  -29.2228  -43.6103 H         1 UNK         0.0865 
     70 H70        13.6892  -30.8545  -44.2305 H         1 UNK         0.0865 
     71 H71        15.8220  -32.3198  -43.9593 H         1 UNK         0.1346 
     72 H72        18.5283  -31.1815  -40.8333 H         1 UNK         0.1412 
     73 H73        15.2922  -28.5904  -41.9093 H         1 UNK         0.1426 
     74 H74        18.3461  -29.0863  -39.7569 H         1 UNK         0.0716 
     75 H75        16.7030  -28.5404  -39.5078 H         1 UNK         0.0716 
     76 H76        19.6857  -27.2218  -39.6358 H         1 UNK         0.0695 
     77 H77        19.5396  -25.6806  -40.4302 H         1 UNK         0.0695 
     78 H78        20.5882  -28.2511  -41.6963 H         1 UNK         0.0983 
     79 H79        20.1537  -27.4005  -43.6883 H         1 UNK         0.3095 
     80 H80        19.6895  -24.1641  -45.0237 H         1 UNK         0.0454 
     81 H81        21.6043  -26.4369  -45.7637 H         1 UNK         0.0851 
     82 H82        22.0593  -24.7712  -45.4527 H         1 UNK         0.0851 
     83 H83        21.0449  -25.1552  -46.8341 H         1 UNK         0.0851 
     84 H84        18.0474  -25.4349  -45.7093 H         1 UNK         0.2976 
     85 H85        22.8067  -26.9653  -42.9978 H         1 UNK         0.3116 
     86 H86        24.3230  -25.2681  -41.3111 H         1 UNK         0.0646 
     87 H87        24.6674  -25.4413  -43.7696 H         1 UNK         0.0847 
     88 H88        26.1640  -25.7543  -42.9036 H         1 UNK         0.0847 
     89 H89        25.2569  -27.0917  -43.5884 H         1 UNK         0.0847 
     90 H90        24.9498  -25.8116  -39.3541 H         1 UNK         0.3040 
     91 H91        25.6850  -26.8122  -37.5235 H         1 UNK         0.1015 
     92 H92        27.4200  -28.5534  -39.3603 H         1 UNK         0.0786 
     93 H93        27.6969  -28.2389  -37.6540 H         1 UNK         0.0786 
     94 H94        27.8450  -26.9317  -38.8142 H         1 UNK         0.0786 
     95 H95        23.3591  -28.0127  -39.0344 H         1 UNK         0.3172 
     96 H96        21.9679  -29.7077  -39.1746 H         1 UNK         0.0595 
     97 H97        23.1587  -30.8014  -36.5722 H         1 UNK         0.0839 
     98 H98        21.5900  -31.1991  -37.2540 H         1 UNK         0.0839 
     99 H99        21.8966  -29.5732  -36.6694 H         1 UNK         0.0839 
    100 H100       24.7897  -29.9575  -40.2928 H         1 UNK         0.2998 
    101 H101       25.0468  -32.9138  -40.5926 H         1 UNK         0.0822 
    102 H102       27.3635  -32.3589  -41.2986 H         1 UNK         0.0787 
    103 H103       27.0365  -30.6391  -41.1244 H         1 UNK         0.0787 
    104 H104       27.0362  -31.6875  -39.7075 H         1 UNK         0.0787 
    105 H105       24.4236  -29.8854  -42.3567 H         1 UNK         0.3055 
    106 H106       23.7199  -31.4766  -44.7671 H         1 UNK         0.1106 
    107 H107       24.9250  -29.8199  -46.2021 H         1 UNK         0.0828 
    108 H108       25.6604  -29.1169  -44.7677 H         1 UNK         0.0828 
    109 H109       26.0170  -30.7808  -45.2177 H         1 UNK         0.0828 
    110 H110       20.8548  -29.3321  -44.5698 H         1 UNK         0.2931 
    111 H111       21.6290  -32.0964  -44.5463 H         1 UNK         0.0412 
    112 H112       21.8020  -32.9384  -41.0793 H         1 UNK         0.3472 
    113 H113       21.7704  -33.5433  -42.7198 H         1 UNK         0.3472 
    114 H114       18.9931  -30.7213  -43.8329 H         1 UNK         0.0970 
    115 H115       19.4805  -31.1420  -45.4328 H         1 UNK         0.0970 
    116 H116       18.8147  -33.2884  -41.8728 H         1 UNK         0.0612 
    117 H117       17.4157  -34.0379  -42.5945 H         1 UNK         0.0612 
@<TRIPOS>BOND
     1    1    2 1    
     2    1   62 1    
     3    1   63 1    
     4    1   64 1    
     5    2    3 2    
     6    2    4 am   BACKBONE|DICT|INTERRES
     7    4    5 1    
     8    4   65 1    
     9    5    6 1    
    10    5   25 1    
    11    5   66 1    
    12    6    7 1    
    13    6   67 1    
    14    6   68 1    
    15    7    8 1    
    16    8    9 1    
    17    8   69 1    
    18    8   70 1    
    19    9   10 ar   
    20    9   14 ar   
    21   10   11 ar   
    22   10   71 1    
    23   11   12 ar   
    24   11   61 1    
    25   12   13 ar   
    26   12   72 1    
    27   13   14 ar   
    28   13   15 1    
    29   14   73 1    
    30   15   16 1    
    31   15   74 1    
    32   15   75 1    
    33   16   17 1    
    34   17   18 1    
    35   17   76 1    
    36   17   77 1    
    37   18   19 1    
    38   18   27 1    
    39   18   78 1    
    40   19   20 am   BACKBONE|DICT|INTERRES
    41   19   79 1    
    42   20   21 2    
    43   20   22 1    
    44   22   23 1    
    45   22   24 1    
    46   22   80 1    
    47   23   81 1    
    48   23   82 1    
    49   23   83 1    
    50   24   25 am   BACKBONE|DICT|INTERRES
    51   24   84 1    
    52   25   26 2    
    53   27   28 2    
    54   27   29 am   BACKBONE|DICT|INTERRES
    55   29   30 1    
    56   29   85 1    
    57   30   31 1    
    58   30   32 1    
    59   30   86 1    
    60   31   87 1    
    61   31   88 1    
    62   31   89 1    
    63   32   33 2    
    64   32   34 am   BACKBONE|DICT|INTERRES
    65   34   35 1    
    66   34   90 1    
    67   35   36 1    
    68   35   37 1    
    69   35   91 1    
    70   36   92 1    
    71   36   93 1    
    72   36   94 1    
    73   37   38 2    
    74   37   39 am   BACKBONE|DICT|INTERRES
    75   39   40 1    
    76   39   95 1    
    77   40   41 1    
    78   40   42 1    
    79   40   96 1    
    80   41   97 1    
    81   41   98 1    
    82   41   99 1    
    83   42   43 2    
    84   42   44 am   BACKBONE|DICT|INTERRES
    85   44   45 1    
    86   44  100 1    
    87   45   46 1    
    88   45   47 1    
    89   45  101 1    
    90   46  102 1    
    91   46  103 1    
    92   46  104 1    
    93   47   48 2    
    94   47   49 am   BACKBONE|DICT|INTERRES
    95   49   50 1    
    96   49  105 1    
    97   50   51 1    
    98   50   52 1    
    99   50  106 1    
   100   51  107 1    
   101   51  108 1    
   102   51  109 1    
   103   52   53 2    
   104   52   54 am   BACKBONE|DICT|INTERRES
   105   54   55 1    
   106   54  110 1    
   107   55   56 1    
   108   55   59 1    
   109   55  111 1    
   110   56   57 am   BACKBONE|DICT|INTERRES
   111   56   58 2    
   112   57  112 1    
   113   57  113 1    
   114   59   60 1    
   115   59  114 1    
   116   59  115 1    
   117   60   61 1    
   118   61  116 1    
   119   61  117 1    
@<TRIPOS>SUBSTRUCTURE
     1 UNK         1 GROUP             0       ****    0 ROOT    
