@<TRIPOS>MOLECULE
3R8
117   119    1
SMALL
USER_CHARGES


@<TRIPOS>ATOM
      1 CA         11.8687  -26.6286  -41.7055 C.3       0 UNK        -0.2013 
      2 C          12.8905  -27.0657  -42.7452 C.2       0 UNK         0.4866 
      3 O          12.7756  -28.1703  -43.2754 O.2       0 UNK        -0.5176 
      4 N          13.8668  -26.1943  -43.0390 N.am      1 UNK        -0.4884 
      5 CA         15.0111  -26.3885  -43.9398 C.3       1 UNK         0.0853 
      6 C6         14.6249  -26.8818  -45.3597 C.3       10 UNK        -0.0849 
      7 S7         15.8367  -26.3751  -46.6272 S.3       10 UNK        -0.2776 
      8 C8         16.4386  -27.9727  -47.2703 C.3       10 UNK         0.0316 
      9 C9         17.7599  -28.4038  -46.6448 C.ar      10 UNK        -0.0863 
     10 C10        17.8382  -29.5556  -45.8538 C.ar      10 UNK        -0.1009 
     11 C11        19.0728  -30.0000  -45.3654 C.ar      10 UNK        -0.0712 
     12 C12        20.2308  -29.2709  -45.6565 C.ar      10 UNK        -0.0894 
     13 C13        20.1646  -28.1144  -46.4393 C.ar      10 UNK        -0.0745 
     14 C14        18.9267  -27.6870  -46.9274 C.ar      10 UNK        -0.0972 
     15 C15        21.4294  -27.3560  -46.8179 C.3       10 UNK         0.0209 
     16 S16        21.7503  -25.9431  -45.7151 S.3       10 UNK        -0.2568 
     17 C17        22.7125  -26.7147  -44.3723 C.3       10 UNK        -0.0983 
     18 CA         22.1203  -26.4372  -42.9678 C.3       3 UNK         0.0876 
     19 N          20.8285  -27.0884  -42.7733 N.am      3 UNK        -0.4424 
     20 C          19.6527  -26.4566  -42.7195 C.2       2 UNK         0.4918 
     21 O          19.5064  -25.2365  -42.8351 O.2       2 UNK        -0.4875 
     22 CA         18.4306  -27.3401  -42.4673 C.3       2 UNK         0.0481 
     23 CB         18.2808  -27.6756  -40.9708 C.3       2 UNK        -0.1831 
     24 N          17.2399  -26.6682  -42.9725 N.am      2 UNK        -0.4498 
     25 C          16.0893  -27.2741  -43.2852 C.2       1 UNK         0.5027 
     26 O          15.8678  -28.4696  -43.0816 O.2       1 UNK        -0.4969 
     27 C          23.0768  -26.9650  -41.8904 C.2       3 UNK         0.5005 
     28 O          23.1132  -28.1760  -41.6499 O.2       3 UNK        -0.5279 
     29 N          23.8921  -26.0708  -41.3138 N.am      4 UNK        -0.4463 
     30 CA         24.9770  -26.4203  -40.3882 C.3       4 UNK         0.0283 
     31 CB         25.5427  -25.1450  -39.7447 C.3       4 UNK        -0.1875 
     32 C          26.0970  -27.2245  -41.0716 C.2       4 UNK         0.4949 
     33 O          26.6807  -28.1065  -40.4440 O.2       4 UNK        -0.5039 
     34 N          26.3257  -26.9576  -42.3664 N.am      5 UNK        -0.4663 
     35 CA         27.2409  -27.7056  -43.2362 C.3       5 UNK         0.0242 
     36 CB         27.3871  -26.9569  -44.5708 C.3       5 UNK        -0.1982 
     37 C          26.8058  -29.1632  -43.4843 C.2       5 UNK         0.5017 
     38 O          27.6544  -29.9971  -43.7994 O.2       5 UNK        -0.5012 
     39 N          25.5064  -29.4458  -43.3139 N.am      6 UNK        -0.4439 
     40 CA         24.9160  -30.7840  -43.3634 C.3       6 UNK         0.0297 
     41 CB         23.5470  -30.6971  -44.0633 C.3       6 UNK        -0.2006 
     42 C          24.7777  -31.4057  -41.9600 C.2       6 UNK         0.4892 
     43 O          24.1023  -32.4265  -41.8333 O.2       6 UNK        -0.5089 
     44 N          25.3721  -30.7754  -40.9316 N.am      7 UNK        -0.4243 
     45 CA         25.3053  -31.1333  -39.5089 C.3       7 UNK         0.0196 
     46 CB         26.0470  -32.4608  -39.2427 C.3       7 UNK        -0.2007 
     47 C          23.8619  -31.1291  -38.9713 C.2       7 UNK         0.5020 
     48 O          23.4664  -32.0526  -38.2578 O.2       7 UNK        -0.5147 
     49 N          23.0844  -30.1099  -39.3733 N.am      8 UNK        -0.4734 
     50 CA         21.6490  -29.9391  -39.1053 C.3       8 UNK         0.0238 
     51 CB         21.3899  -29.6857  -37.6051 C.3       8 UNK        -0.1912 
     52 C          20.7932  -31.0859  -39.6823 C.2       8 UNK         0.5038 
     53 O          19.7560  -31.4285  -39.1123 O.2       8 UNK        -0.5046 
     54 N          21.2615  -31.6514  -40.8031 N.am      9 UNK        -0.4200 
     55 CA         20.6916  -32.7952  -41.5320 C.3       9 UNK         0.0839 
     56 C          20.8828  -34.1661  -40.8158 C.2       9 UNK         0.5513 
     57 N          21.6973  -34.2685  -39.7709 N.am      9 UNK        -0.7519 
     58 O          20.3010  -35.1660  -41.2296 O.2       9 UNK        -0.4960 
     59 C59        19.2288  -32.5757  -42.0209 C.3       10 UNK        -0.0876 
     60 S60        18.9513  -30.9410  -42.7815 S.3       10 UNK        -0.2414 
     61 C61        19.1625  -31.2831  -44.5496 C.3       10 UNK         0.0169 
     62 H62        11.8736  -27.3189  -40.8623 H         1 UNK         0.0903 
     63 H63        12.0724  -25.6279  -41.3246 H         1 UNK         0.0903 
     64 H64        10.8689  -26.6283  -42.1391 H         1 UNK         0.0903 
     65 H65        13.8768  -25.3128  -42.5434 H         1 UNK         0.3096 
     66 H66        15.4300  -25.3866  -44.0526 H         1 UNK         0.1121 
     67 H67        13.6691  -26.4447  -45.6528 H         1 UNK         0.0849 
     68 H68        14.4683  -27.9619  -45.3765 H         1 UNK         0.0849 
     69 H69        15.6771  -28.7448  -47.1530 H         1 UNK         0.0865 
     70 H70        16.5865  -27.8712  -48.3464 H         1 UNK         0.0865 
     71 H71        16.9426  -30.1205  -45.6334 H         1 UNK         0.1346 
     72 H72        21.1862  -29.6156  -45.2895 H         1 UNK         0.1412 
     73 H73        18.8727  -26.8034  -47.5493 H         1 UNK         0.1426 
     74 H74        21.3294  -26.9783  -47.8366 H         1 UNK         0.0716 
     75 H75        22.2918  -28.0241  -46.8354 H         1 UNK         0.0716 
     76 H76        23.7278  -26.3203  -44.4464 H         1 UNK         0.0695 
     77 H77        22.7935  -27.7884  -44.5466 H         1 UNK         0.0695 
     78 H78        22.0212  -25.3576  -42.8335 H         1 UNK         0.0983 
     79 H79        20.8720  -28.0853  -42.6148 H         1 UNK         0.3095 
     80 H80        18.5667  -28.2503  -43.0466 H         1 UNK         0.0454 
     81 H81        17.4467  -28.3552  -40.7963 H         1 UNK         0.0851 
     82 H82        18.1153  -26.7791  -40.3725 H         1 UNK         0.0851 
     83 H83        19.1745  -28.1674  -40.5868 H         1 UNK         0.0851 
     84 H84        17.3808  -25.6877  -43.1840 H         1 UNK         0.2976 
     85 H85        23.8010  -25.0936  -41.5555 H         1 UNK         0.3116 
     86 H86        24.5575  -27.0448  -39.5962 H         1 UNK         0.0646 
     87 H87        25.9659  -24.4673  -40.4872 H         1 UNK         0.0847 
     88 H88        26.3361  -25.3864  -39.0357 H         1 UNK         0.0847 
     89 H89        24.7739  -24.6032  -39.1936 H         1 UNK         0.0847 
     90 H90        25.8138  -26.1997  -42.7938 H         1 UNK         0.3040 
     91 H91        28.2178  -27.7383  -42.7481 H         1 UNK         0.1015 
     92 H92        26.4357  -26.8808  -45.0990 H         1 UNK         0.0786 
     93 H93        28.0861  -27.4711  -45.2322 H         1 UNK         0.0786 
     94 H94        27.7712  -25.9477  -44.4206 H         1 UNK         0.0786 
     95 H95        24.8904  -28.7050  -43.0069 H         1 UNK         0.3172 
     96 H96        25.5525  -31.4493  -43.9500 H         1 UNK         0.0595 
     97 H97        22.8304  -30.1169  -43.4814 H         1 UNK         0.0839 
     98 H98        23.1167  -31.6890  -44.2084 H         1 UNK         0.0839 
     99 H99        23.6346  -30.2397  -45.0488 H         1 UNK         0.0839 
    100 H100       25.8938  -29.9287  -41.1275 H         1 UNK         0.2998 
    101 H101       25.8329  -30.3466  -38.9674 H         1 UNK         0.0822 
    102 H102       27.0699  -32.4251  -39.6174 H         1 UNK         0.0787 
    103 H103       26.1011  -32.6700  -38.1737 H         1 UNK         0.0787 
    104 H104       25.5461  -33.3072  -39.7138 H         1 UNK         0.0787 
    105 H105       23.4750  -29.4329  -40.0217 H         1 UNK         0.3055 
    106 H106       21.3454  -29.0416  -39.6461 H         1 UNK         0.1106 
    107 H107       20.3473  -29.4182  -37.4287 H         1 UNK         0.0828 
    108 H108       21.6037  -30.5681  -37.0014 H         1 UNK         0.0828 
    109 H109       22.0011  -28.8652  -37.2299 H         1 UNK         0.0828 
    110 H110       22.1613  -31.3440  -41.1440 H         1 UNK         0.2931 
    111 H111       21.3073  -32.8718  -42.4288 H         1 UNK         0.0412 
    112 H112       22.1990  -33.4612  -39.4231 H         1 UNK         0.3472 
    113 H113       21.8179  -35.1645  -39.3261 H         1 UNK         0.3472 
    114 H114       18.5356  -32.6705  -41.1836 H         1 UNK         0.0970 
    115 H115       18.9428  -33.3524  -42.7321 H         1 UNK         0.0970 
    116 H116       18.3997  -31.9917  -44.8757 H         1 UNK         0.0612 
    117 H117       20.1278  -31.7658  -44.7110 H         1 UNK         0.0612 
@<TRIPOS>BOND
     1    1    2 1    
     2    1   62 1    
     3    1   63 1    
     4    1   64 1    
     5    2    3 2    
     6    2    4 am   BACKBONE|DICT|INTERRES
     7    4    5 1    
     8    4   65 1    
     9    5    6 1    
    10    5   25 1    
    11    5   66 1    
    12    6    7 1    
    13    6   67 1    
    14    6   68 1    
    15    7    8 1    
    16    8    9 1    
    17    8   69 1    
    18    8   70 1    
    19    9   10 ar   
    20    9   14 ar   
    21   10   11 ar   
    22   10   71 1    
    23   11   12 ar   
    24   11   61 1    
    25   12   13 ar   
    26   12   72 1    
    27   13   14 ar   
    28   13   15 1    
    29   14   73 1    
    30   15   16 1    
    31   15   74 1    
    32   15   75 1    
    33   16   17 1    
    34   17   18 1    
    35   17   76 1    
    36   17   77 1    
    37   18   19 1    
    38   18   27 1    
    39   18   78 1    
    40   19   20 am   BACKBONE|DICT|INTERRES
    41   19   79 1    
    42   20   21 2    
    43   20   22 1    
    44   22   23 1    
    45   22   24 1    
    46   22   80 1    
    47   23   81 1    
    48   23   82 1    
    49   23   83 1    
    50   24   25 am   BACKBONE|DICT|INTERRES
    51   24   84 1    
    52   25   26 2    
    53   27   28 2    
    54   27   29 am   BACKBONE|DICT|INTERRES
    55   29   30 1    
    56   29   85 1    
    57   30   31 1    
    58   30   32 1    
    59   30   86 1    
    60   31   87 1    
    61   31   88 1    
    62   31   89 1    
    63   32   33 2    
    64   32   34 am   BACKBONE|DICT|INTERRES
    65   34   35 1    
    66   34   90 1    
    67   35   36 1    
    68   35   37 1    
    69   35   91 1    
    70   36   92 1    
    71   36   93 1    
    72   36   94 1    
    73   37   38 2    
    74   37   39 am   BACKBONE|DICT|INTERRES
    75   39   40 1    
    76   39   95 1    
    77   40   41 1    
    78   40   42 1    
    79   40   96 1    
    80   41   97 1    
    81   41   98 1    
    82   41   99 1    
    83   42   43 2    
    84   42   44 am   BACKBONE|DICT|INTERRES
    85   44   45 1    
    86   44  100 1    
    87   45   46 1    
    88   45   47 1    
    89   45  101 1    
    90   46  102 1    
    91   46  103 1    
    92   46  104 1    
    93   47   48 2    
    94   47   49 am   BACKBONE|DICT|INTERRES
    95   49   50 1    
    96   49  105 1    
    97   50   51 1    
    98   50   52 1    
    99   50  106 1    
   100   51  107 1    
   101   51  108 1    
   102   51  109 1    
   103   52   53 2    
   104   52   54 am   BACKBONE|DICT|INTERRES
   105   54   55 1    
   106   54  110 1    
   107   55   56 1    
   108   55   59 1    
   109   55  111 1    
   110   56   57 am   BACKBONE|DICT|INTERRES
   111   56   58 2    
   112   57  112 1    
   113   57  113 1    
   114   59   60 1    
   115   59  114 1    
   116   59  115 1    
   117   60   61 1    
   118   61  116 1    
   119   61  117 1    
@<TRIPOS>SUBSTRUCTURE
     1 UNK         1 GROUP             0       ****    0 ROOT    
