@<TRIPOS>MOLECULE
3R8
117   119    1
SMALL
USER_CHARGES


@<TRIPOS>ATOM
      1 CA         14.1733  -24.2130  -47.1345 C.3       0 UNK        -0.2013 
      2 C          15.2387  -25.2797  -47.3375 C.2       0 UNK         0.4866 
      3 O          15.8370  -25.3504  -48.4110 O.2       0 UNK        -0.5176 
      4 N          15.4845  -26.1079  -46.3126 N.am      1 UNK        -0.4884 
      5 CA         16.4752  -27.1964  -46.3340 C.3       1 UNK         0.0853 
      6 C6         16.1083  -28.3156  -45.3188 C.3       10 UNK        -0.0849 
      7 S7         16.1866  -29.9929  -46.0453 S.3       10 UNK        -0.2776 
      8 C8         17.7705  -30.6568  -45.4312 C.3       10 UNK         0.0316 
      9 C9         17.7942  -30.7752  -43.9152 C.ar      10 UNK        -0.0863 
     10 C10        17.1370  -31.8280  -43.2708 C.ar      10 UNK        -0.1009 
     11 C11        17.1485  -31.9205  -41.8749 C.ar      10 UNK        -0.0712 
     12 C12        17.7955  -30.9332  -41.1240 C.ar      10 UNK        -0.0894 
     13 C13        18.4523  -29.8768  -41.7603 C.ar      10 UNK        -0.0745 
     14 C14        18.4704  -29.8188  -43.1554 C.ar      10 UNK        -0.0972 
     15 C15        19.1327  -28.7826  -40.9567 C.3       10 UNK         0.0209 
     16 S16        18.2786  -27.1909  -41.1947 S.3       10 UNK        -0.2568 
     17 C17        19.6362  -26.0234  -40.8714 C.3       10 UNK        -0.0983 
     18 CA         20.5441  -25.8203  -42.1112 C.3       3 UNK         0.0876 
     19 N          19.8049  -25.3121  -43.2711 N.am      3 UNK        -0.4424 
     20 C          20.2756  -25.2994  -44.5244 C.2       2 UNK         0.4918 
     21 O          21.3706  -25.7622  -44.8513 O.2       2 UNK        -0.4875 
     22 CA         19.3456  -24.6752  -45.5814 C.3       2 UNK         0.0481 
     23 CB         20.0395  -24.4717  -46.9453 C.3       2 UNK        -0.1831 
     24 N          18.0893  -25.4188  -45.7438 N.am      2 UNK        -0.4498 
     25 C          17.9281  -26.6911  -46.1493 C.2       1 UNK         0.5027 
     26 O          18.8618  -27.4542  -46.3961 O.2       1 UNK        -0.4969 
     27 C          21.7494  -24.9259  -41.7540 C.2       3 UNK         0.5005 
     28 O          21.7428  -23.7216  -42.0239 O.2       3 UNK        -0.5279 
     29 N          22.7461  -25.5452  -41.1177 N.am      4 UNK        -0.4463 
     30 CA         23.9957  -24.9693  -40.6375 C.3       4 UNK         0.0283 
     31 CB         24.9603  -24.7384  -41.8173 C.3       4 UNK        -0.1875 
     32 C          24.5819  -25.9644  -39.6275 C.2       4 UNK         0.4949 
     33 O          24.0839  -27.0887  -39.5245 O.2       4 UNK        -0.5039 
     34 N          25.6505  -25.5671  -38.9260 N.am      5 UNK        -0.4663 
     35 CA         26.3381  -26.3947  -37.9226 C.3       5 UNK         0.0242 
     36 CB         27.4265  -25.5541  -37.2353 C.3       5 UNK        -0.1982 
     37 C          26.9388  -27.7044  -38.4742 C.2       5 UNK         0.5017 
     38 O          27.0806  -28.6663  -37.7188 O.2       5 UNK        -0.5012 
     39 N          27.2687  -27.7159  -39.7722 N.am      6 UNK        -0.4439 
     40 CA         27.8012  -28.8689  -40.5007 C.3       6 UNK         0.0297 
     41 CB         28.8762  -28.3678  -41.4818 C.3       6 UNK        -0.2006 
     42 C          26.7197  -29.6730  -41.2513 C.2       6 UNK         0.4892 
     43 O          27.0664  -30.6772  -41.8758 O.2       6 UNK        -0.5089 
     44 N          25.4532  -29.2290  -41.2235 N.am      7 UNK        -0.4243 
     45 CA         24.3459  -29.8807  -41.9299 C.3       7 UNK         0.0196 
     46 CB         23.2094  -28.8680  -42.1521 C.3       7 UNK        -0.2007 
     47 C          23.8239  -31.1123  -41.1722 C.2       7 UNK         0.5020 
     48 O          23.9922  -31.2182  -39.9551 O.2       7 UNK        -0.5147 
     49 N          23.1554  -31.9993  -41.9120 N.am      8 UNK        -0.4734 
     50 CA         22.4672  -33.1887  -41.4198 C.3       8 UNK         0.0238 
     51 CB         23.4669  -34.3516  -41.2749 C.3       8 UNK        -0.1912 
     52 C          21.3481  -33.5328  -42.4106 C.2       8 UNK         0.5038 
     53 O          21.3751  -33.0500  -43.5470 O.2       8 UNK        -0.5046 
     54 N          20.3971  -34.3650  -41.9710 N.am      9 UNK        -0.4200 
     55 CA         19.2281  -34.7788  -42.7663 C.3       9 UNK         0.0839 
     56 C          19.5338  -35.7752  -43.9231 C.2       9 UNK         0.5513 
     57 N          20.7209  -36.3647  -44.0010 N.am      9 UNK        -0.7519 
     58 O          18.6744  -36.0162  -44.7668 O.2       9 UNK        -0.4960 
     59 C59        18.0629  -35.3054  -41.8841 C.3       10 UNK        -0.0876 
     60 S60        17.6483  -34.2451  -40.4547 S.3       10 UNK        -0.2414 
     61 C61        16.4505  -33.0728  -41.1677 C.3       10 UNK         0.0169 
     62 H62        14.6062  -23.2210  -47.2613 H         1 UNK         0.0903 
     63 H63        13.3778  -24.3336  -47.8694 H         1 UNK         0.0903 
     64 H64        13.7271  -24.2640  -46.1415 H         1 UNK         0.0903 
     65 H65        14.9592  -26.0044  -45.4551 H         1 UNK         0.3096 
     66 H66        16.4450  -27.6245  -47.3389 H         1 UNK         0.1121 
     67 H67        16.6986  -28.2505  -44.4050 H         1 UNK         0.0849 
     68 H68        15.0771  -28.1979  -44.9821 H         1 UNK         0.0849 
     69 H69        17.9349  -31.6413  -45.8717 H         1 UNK         0.0865 
     70 H70        18.5906  -30.0303  -45.7843 H         1 UNK         0.0865 
     71 H71        16.6196  -32.5748  -43.8576 H         1 UNK         0.1346 
     72 H72        17.7869  -30.9924  -40.0441 H         1 UNK         0.1412 
     73 H73        18.9788  -29.0005  -43.6486 H         1 UNK         0.1426 
     74 H74        20.1718  -28.7113  -41.2775 H         1 UNK         0.0716 
     75 H75        19.1518  -29.0248  -39.8930 H         1 UNK         0.0716 
     76 H76        20.2084  -26.3916  -40.0172 H         1 UNK         0.0695 
     77 H77        19.2001  -25.0730  -40.5574 H         1 UNK         0.0695 
     78 H78        20.9468  -26.7922  -42.4034 H         1 UNK         0.0983 
     79 H79        18.8979  -24.9127  -43.0820 H         1 UNK         0.3095 
     80 H80        19.0719  -23.6868  -45.2088 H         1 UNK         0.0454 
     81 H81        20.9269  -23.8464  -46.8403 H         1 UNK         0.0851 
     82 H82        19.3778  -23.9787  -47.6573 H         1 UNK         0.0851 
     83 H83        20.3606  -25.4162  -47.3857 H         1 UNK         0.0851 
     84 H84        17.2458  -24.8936  -45.5610 H         1 UNK         0.2976 
     85 H85        22.6496  -26.5174  -40.8475 H         1 UNK         0.3116 
     86 H86        23.7888  -24.0273  -40.1258 H         1 UNK         0.0646 
     87 H87        25.9018  -24.3023  -41.4821 H         1 UNK         0.0847 
     88 H88        24.5358  -24.0515  -42.5496 H         1 UNK         0.0847 
     89 H89        25.1950  -25.6699  -42.3342 H         1 UNK         0.0847 
     90 H90        26.0063  -24.6312  -39.0638 H         1 UNK         0.3040 
     91 H91        25.5993  -26.6788  -37.1697 H         1 UNK         0.1015 
     92 H92        27.9389  -26.1326  -36.4650 H         1 UNK         0.0786 
     93 H93        27.0025  -24.6759  -36.7479 H         1 UNK         0.0786 
     94 H94        28.1827  -25.2144  -37.9443 H         1 UNK         0.0786 
     95 H95        27.1171  -26.8713  -40.3044 H         1 UNK         0.3172 
     96 H96        28.2817  -29.5555  -39.8006 H         1 UNK         0.0595 
     97 H97        28.4575  -27.6979  -42.2339 H         1 UNK         0.0839 
     98 H98        29.3434  -29.1993  -42.0114 H         1 UNK         0.0839 
     99 H99        29.6712  -27.8338  -40.9609 H         1 UNK         0.0839 
    100 H100       25.2082  -28.4618  -40.6085 H         1 UNK         0.2998 
    101 H101       24.7069  -30.2055  -42.9086 H         1 UNK         0.0822 
    102 H102       23.5715  -27.9622  -42.6389 H         1 UNK         0.0787 
    103 H103       22.7355  -28.5889  -41.2113 H         1 UNK         0.0787 
    104 H104       22.4315  -29.2877  -42.7915 H         1 UNK         0.0787 
    105 H105       22.9926  -31.8196  -42.8965 H         1 UNK         0.3055 
    106 H106       22.0119  -32.9667  -40.4516 H         1 UNK         0.1106 
    107 H107       23.9322  -34.6029  -42.2289 H         1 UNK         0.0828 
    108 H108       24.2622  -34.1056  -40.5710 H         1 UNK         0.0828 
    109 H109       22.9760  -35.2512  -40.9019 H         1 UNK         0.0828 
    110 H110       20.4418  -34.7247  -41.0291 H         1 UNK         0.2931 
    111 H111       18.8660  -33.8800  -43.2640 H         1 UNK         0.0412 
    112 H112       21.4341  -36.1711  -43.3169 H         1 UNK         0.3472 
    113 H113       20.9059  -37.0057  -44.7569 H         1 UNK         0.3472 
    114 H114       17.1643  -35.4495  -42.4870 H         1 UNK         0.0970 
    115 H115       18.3141  -36.2920  -41.4902 H         1 UNK         0.0970 
    116 H116       15.8338  -32.6724  -40.3618 H         1 UNK         0.0612 
    117 H117       15.7693  -33.5959  -41.8403 H         1 UNK         0.0612 
@<TRIPOS>BOND
     1    1    2 1    
     2    1   62 1    
     3    1   63 1    
     4    1   64 1    
     5    2    3 2    
     6    2    4 am   BACKBONE|DICT|INTERRES
     7    4    5 1    
     8    4   65 1    
     9    5    6 1    
    10    5   25 1    
    11    5   66 1    
    12    6    7 1    
    13    6   67 1    
    14    6   68 1    
    15    7    8 1    
    16    8    9 1    
    17    8   69 1    
    18    8   70 1    
    19    9   10 ar   
    20    9   14 ar   
    21   10   11 ar   
    22   10   71 1    
    23   11   12 ar   
    24   11   61 1    
    25   12   13 ar   
    26   12   72 1    
    27   13   14 ar   
    28   13   15 1    
    29   14   73 1    
    30   15   16 1    
    31   15   74 1    
    32   15   75 1    
    33   16   17 1    
    34   17   18 1    
    35   17   76 1    
    36   17   77 1    
    37   18   19 1    
    38   18   27 1    
    39   18   78 1    
    40   19   20 am   BACKBONE|DICT|INTERRES
    41   19   79 1    
    42   20   21 2    
    43   20   22 1    
    44   22   23 1    
    45   22   24 1    
    46   22   80 1    
    47   23   81 1    
    48   23   82 1    
    49   23   83 1    
    50   24   25 am   BACKBONE|DICT|INTERRES
    51   24   84 1    
    52   25   26 2    
    53   27   28 2    
    54   27   29 am   BACKBONE|DICT|INTERRES
    55   29   30 1    
    56   29   85 1    
    57   30   31 1    
    58   30   32 1    
    59   30   86 1    
    60   31   87 1    
    61   31   88 1    
    62   31   89 1    
    63   32   33 2    
    64   32   34 am   BACKBONE|DICT|INTERRES
    65   34   35 1    
    66   34   90 1    
    67   35   36 1    
    68   35   37 1    
    69   35   91 1    
    70   36   92 1    
    71   36   93 1    
    72   36   94 1    
    73   37   38 2    
    74   37   39 am   BACKBONE|DICT|INTERRES
    75   39   40 1    
    76   39   95 1    
    77   40   41 1    
    78   40   42 1    
    79   40   96 1    
    80   41   97 1    
    81   41   98 1    
    82   41   99 1    
    83   42   43 2    
    84   42   44 am   BACKBONE|DICT|INTERRES
    85   44   45 1    
    86   44  100 1    
    87   45   46 1    
    88   45   47 1    
    89   45  101 1    
    90   46  102 1    
    91   46  103 1    
    92   46  104 1    
    93   47   48 2    
    94   47   49 am   BACKBONE|DICT|INTERRES
    95   49   50 1    
    96   49  105 1    
    97   50   51 1    
    98   50   52 1    
    99   50  106 1    
   100   51  107 1    
   101   51  108 1    
   102   51  109 1    
   103   52   53 2    
   104   52   54 am   BACKBONE|DICT|INTERRES
   105   54   55 1    
   106   54  110 1    
   107   55   56 1    
   108   55   59 1    
   109   55  111 1    
   110   56   57 am   BACKBONE|DICT|INTERRES
   111   56   58 2    
   112   57  112 1    
   113   57  113 1    
   114   59   60 1    
   115   59  114 1    
   116   59  115 1    
   117   60   61 1    
   118   61  116 1    
   119   61  117 1    
@<TRIPOS>SUBSTRUCTURE
     1 UNK         1 GROUP             0       ****    0 ROOT    
