@<TRIPOS>MOLECULE
3R8
117   119    1
SMALL
USER_CHARGES


@<TRIPOS>ATOM
      1 CA         18.2625  -27.0665  -40.0303 C.3       0 UNK        -0.2013 
      2 C          17.6567  -26.4964  -41.3027 C.2       0 UNK         0.4866 
      3 O          17.6064  -25.2771  -41.4691 O.2       0 UNK        -0.5176 
      4 N          17.1918  -27.3693  -42.2034 N.am      1 UNK        -0.4884 
      5 CA         16.6046  -27.0358  -43.5057 C.3       1 UNK         0.0853 
      6 C6         15.7006  -28.1808  -44.0475 C.3       10 UNK        -0.0849 
      7 S7         16.3883  -29.8657  -43.8494 S.3       10 UNK        -0.2776 
      8 C8         16.7629  -30.3567  -45.5636 C.3       10 UNK         0.0316 
      9 C9         18.0952  -31.0869  -45.6295 C.ar      10 UNK        -0.0863 
     10 C10        18.2206  -32.3682  -45.0863 C.ar      10 UNK        -0.1009 
     11 C11        19.4541  -33.0236  -45.0941 C.ar      10 UNK        -0.0712 
     12 C12        20.5617  -32.3970  -45.6746 C.ar      10 UNK        -0.0894 
     13 C13        20.4504  -31.1202  -46.2365 C.ar      10 UNK        -0.0745 
     14 C14        19.2078  -30.4749  -46.2146 C.ar      10 UNK        -0.0972 
     15 C15        21.6785  -30.4744  -46.8794 C.3       10 UNK         0.0209 
     16 S16        21.8011  -28.6659  -46.6522 S.3       10 UNK        -0.2568 
     17 C17        22.0482  -28.5574  -44.8503 C.3       10 UNK        -0.0983 
     18 CA         22.0596  -27.0963  -44.3347 C.3       3 UNK         0.0876 
     19 N          20.7954  -26.4160  -44.6424 N.am      3 UNK        -0.4424 
     20 C          20.6211  -25.1037  -44.8262 C.2       2 UNK         0.4918 
     21 O          21.5330  -24.2825  -44.7386 O.2       2 UNK        -0.4875 
     22 CA         19.1886  -24.6050  -45.0920 C.3       2 UNK         0.0481 
     23 CB         18.8864  -24.5622  -46.6025 C.3       2 UNK        -0.1831 
     24 N          18.1457  -25.3214  -44.3394 N.am      2 UNK        -0.4498 
     25 C          17.6951  -26.5748  -44.4979 C.2       1 UNK         0.5027 
     26 O          18.1429  -27.3519  -45.3400 O.2       1 UNK        -0.4969 
     27 C          22.4257  -27.0233  -42.8308 C.2       3 UNK         0.5005 
     28 O          23.1826  -27.8683  -42.3463 O.2       3 UNK        -0.5279 
     29 N          21.8941  -26.0294  -42.1027 N.am      4 UNK        -0.4463 
     30 CA         22.1308  -25.7821  -40.6789 C.3       4 UNK         0.0283 
     31 CB         21.3615  -24.5243  -40.2454 C.3       4 UNK        -0.1875 
     32 C          23.6276  -25.6466  -40.3517 C.2       4 UNK         0.4949 
     33 O          24.3288  -24.8807  -41.0142 O.2       4 UNK        -0.5039 
     34 N          24.0754  -26.4284  -39.3602 N.am      5 UNK        -0.4663 
     35 CA         25.4585  -26.5995  -38.8904 C.3       5 UNK         0.0242 
     36 CB         26.0657  -25.2602  -38.4203 C.3       5 UNK        -0.1982 
     37 C          26.3958  -27.3455  -39.8653 C.2       5 UNK         0.5017 
     38 O          27.5526  -27.5685  -39.5049 O.2       5 UNK        -0.5012 
     39 N          25.9031  -27.7475  -41.0459 N.am      6 UNK        -0.4439 
     40 CA         26.6330  -28.5584  -42.0234 C.3       6 UNK         0.0297 
     41 CB         26.4991  -27.9349  -43.4241 C.3       6 UNK        -0.2006 
     42 C          26.1130  -30.0023  -42.0103 C.2       6 UNK         0.4892 
     43 O          26.9082  -30.9324  -41.8728 O.2       6 UNK        -0.5089 
     44 N          24.7901  -30.1577  -42.1307 N.am      7 UNK        -0.4243 
     45 CA         24.0625  -31.4227  -42.1399 C.3       7 UNK         0.0196 
     46 CB         24.3022  -32.1818  -43.4634 C.3       7 UNK        -0.2007 
     47 C          22.5861  -31.0825  -41.9156 C.2       7 UNK         0.5020 
     48 O          21.7926  -31.1590  -42.8491 O.2       7 UNK        -0.5147 
     49 N          22.2602  -30.6294  -40.6968 N.am      8 UNK        -0.4734 
     50 CA         20.9470  -30.0755  -40.3417 C.3       8 UNK         0.0238 
     51 CB         21.0041  -29.5149  -38.9109 C.3       8 UNK        -0.1912 
     52 C          19.7731  -31.0613  -40.4858 C.2       8 UNK         0.5038 
     53 O          18.6697  -30.6266  -40.8173 O.2       8 UNK        -0.5046 
     54 N          20.0372  -32.3506  -40.2249 N.am      9 UNK        -0.4200 
     55 CA         19.0988  -33.4810  -40.3572 C.3       9 UNK         0.0839 
     56 C          17.8362  -33.4024  -39.4429 C.2       9 UNK         0.5513 
     57 N          17.8639  -32.6512  -38.3483 N.am      9 UNK        -0.7519 
     58 O          16.8299  -34.0584  -39.7011 O.2       9 UNK        -0.4960 
     59 C59        18.7626  -33.7984  -41.8436 C.3       10 UNK        -0.0876 
     60 S60        20.2364  -34.3389  -42.7771 S.3       10 UNK        -0.2414 
     61 C61        19.5921  -34.4086  -44.4784 C.3       10 UNK         0.0169 
     62 H62        17.9717  -28.1057  -39.8776 H         1 UNK         0.0903 
     63 H63        19.3486  -27.0179  -40.0790 H         1 UNK         0.0903 
     64 H64        17.9320  -26.4940  -39.1641 H         1 UNK         0.0903 
     65 H65        17.2857  -28.3632  -42.0320 H         1 UNK         0.3096 
     66 H66        15.9475  -26.1746  -43.3607 H         1 UNK         0.1121 
     67 H67        15.4171  -28.0005  -45.0860 H         1 UNK         0.0849 
     68 H68        14.7597  -28.1679  -43.4954 H         1 UNK         0.0849 
     69 H69        15.9670  -31.0028  -45.9364 H         1 UNK         0.0865 
     70 H70        16.7803  -29.4840  -46.2174 H         1 UNK         0.0865 
     71 H71        17.3610  -32.8422  -44.6328 H         1 UNK         0.1346 
     72 H72        21.5171  -32.9034  -45.6749 H         1 UNK         0.1412 
     73 H73        19.1081  -29.4855  -46.6392 H         1 UNK         0.1426 
     74 H74        21.6576  -30.6877  -47.9486 H         1 UNK         0.0716 
     75 H75        22.5917  -30.9286  -46.4914 H         1 UNK         0.0716 
     76 H76        22.9840  -29.0684  -44.6165 H         1 UNK         0.0695 
     77 H77        21.2533  -29.1187  -44.3566 H         1 UNK         0.0695 
     78 H78        22.8626  -26.5717  -44.8570 H         1 UNK         0.0983 
     79 H79        19.9866  -27.0144  -44.7808 H         1 UNK         0.3095 
     80 H80        19.1472  -23.5777  -44.7264 H         1 UNK         0.0454 
     81 H81        18.9563  -25.5476  -47.0641 H         1 UNK         0.0851 
     82 H82        19.5963  -23.9159  -47.1201 H         1 UNK         0.0851 
     83 H83        17.8889  -24.1691  -46.7976 H         1 UNK         0.0851 
     84 H84        17.7919  -24.8252  -43.5275 H         1 UNK         0.2976 
     85 H85        21.3426  -25.3412  -42.5937 H         1 UNK         0.3116 
     86 H86        21.7264  -26.6366  -40.1345 H         1 UNK         0.0646 
     87 H87        20.2917  -24.6235  -40.4299 H         1 UNK         0.0847 
     88 H88        21.7114  -23.6368  -40.7747 H         1 UNK         0.0847 
     89 H89        21.4891  -24.3374  -39.1783 H         1 UNK         0.0847 
     90 H90        23.4007  -27.0194  -38.8945 H         1 UNK         0.3040 
     91 H91        25.3885  -27.2440  -38.0124 H         1 UNK         0.1015 
     92 H92        26.2545  -24.5822  -39.2530 H         1 UNK         0.0786 
     93 H93        27.0194  -25.4200  -37.9157 H         1 UNK         0.0786 
     94 H94        25.4095  -24.7518  -37.7140 H         1 UNK         0.0786 
     95 H95        24.9350  -27.5388  -41.2657 H         1 UNK         0.3172 
     96 H96        27.6968  -28.5865  -41.7785 H         1 UNK         0.0595 
     97 H97        25.4626  -27.8820  -43.7573 H         1 UNK         0.0839 
     98 H98        27.0476  -28.5203  -44.1633 H         1 UNK         0.0839 
     99 H99        26.9064  -26.9240  -43.4450 H         1 UNK         0.0839 
    100 H100       24.2021  -29.3281  -42.2248 H         1 UNK         0.2998 
    101 H101       24.4006  -32.0430  -41.3074 H         1 UNK         0.0822 
    102 H102       25.3445  -32.4807  -43.5724 H         1 UNK         0.0787 
    103 H103       23.6992  -33.0901  -43.5046 H         1 UNK         0.0787 
    104 H104       24.0357  -31.5737  -44.3287 H         1 UNK         0.0787 
    105 H105       22.9816  -30.5818  -39.9917 H         1 UNK         0.3055 
    106 H106       20.7507  -29.2485  -41.0283 H         1 UNK         0.1106 
    107 H107       21.2412  -30.2916  -38.1828 H         1 UNK         0.0828 
    108 H108       20.0468  -29.0810  -38.6195 H         1 UNK         0.0828 
    109 H109       21.7548  -28.7313  -38.8190 H         1 UNK         0.0828 
    110 H110       20.9793  -32.5929  -39.9574 H         1 UNK         0.2931 
    111 H111       19.6412  -34.3430  -39.9671 H         1 UNK         0.0412 
    112 H112       17.0504  -32.6133  -37.7543 H         1 UNK         0.3472 
    113 H113       18.6851  -32.1161  -38.1167 H         1 UNK         0.3472 
    114 H114       18.3212  -32.9245  -42.3242 H         1 UNK         0.0970 
    115 H115       18.0235  -34.5976  -41.9185 H         1 UNK         0.0970 
    116 H116       20.2727  -35.0083  -45.0843 H         1 UNK         0.0612 
    117 H117       18.6353  -34.9330  -44.4864 H         1 UNK         0.0612 
@<TRIPOS>BOND
     1    1    2 1    
     2    1   62 1    
     3    1   63 1    
     4    1   64 1    
     5    2    3 2    
     6    2    4 am   BACKBONE|DICT|INTERRES
     7    4    5 1    
     8    4   65 1    
     9    5    6 1    
    10    5   25 1    
    11    5   66 1    
    12    6    7 1    
    13    6   67 1    
    14    6   68 1    
    15    7    8 1    
    16    8    9 1    
    17    8   69 1    
    18    8   70 1    
    19    9   10 ar   
    20    9   14 ar   
    21   10   11 ar   
    22   10   71 1    
    23   11   12 ar   
    24   11   61 1    
    25   12   13 ar   
    26   12   72 1    
    27   13   14 ar   
    28   13   15 1    
    29   14   73 1    
    30   15   16 1    
    31   15   74 1    
    32   15   75 1    
    33   16   17 1    
    34   17   18 1    
    35   17   76 1    
    36   17   77 1    
    37   18   19 1    
    38   18   27 1    
    39   18   78 1    
    40   19   20 am   BACKBONE|DICT|INTERRES
    41   19   79 1    
    42   20   21 2    
    43   20   22 1    
    44   22   23 1    
    45   22   24 1    
    46   22   80 1    
    47   23   81 1    
    48   23   82 1    
    49   23   83 1    
    50   24   25 am   BACKBONE|DICT|INTERRES
    51   24   84 1    
    52   25   26 2    
    53   27   28 2    
    54   27   29 am   BACKBONE|DICT|INTERRES
    55   29   30 1    
    56   29   85 1    
    57   30   31 1    
    58   30   32 1    
    59   30   86 1    
    60   31   87 1    
    61   31   88 1    
    62   31   89 1    
    63   32   33 2    
    64   32   34 am   BACKBONE|DICT|INTERRES
    65   34   35 1    
    66   34   90 1    
    67   35   36 1    
    68   35   37 1    
    69   35   91 1    
    70   36   92 1    
    71   36   93 1    
    72   36   94 1    
    73   37   38 2    
    74   37   39 am   BACKBONE|DICT|INTERRES
    75   39   40 1    
    76   39   95 1    
    77   40   41 1    
    78   40   42 1    
    79   40   96 1    
    80   41   97 1    
    81   41   98 1    
    82   41   99 1    
    83   42   43 2    
    84   42   44 am   BACKBONE|DICT|INTERRES
    85   44   45 1    
    86   44  100 1    
    87   45   46 1    
    88   45   47 1    
    89   45  101 1    
    90   46  102 1    
    91   46  103 1    
    92   46  104 1    
    93   47   48 2    
    94   47   49 am   BACKBONE|DICT|INTERRES
    95   49   50 1    
    96   49  105 1    
    97   50   51 1    
    98   50   52 1    
    99   50  106 1    
   100   51  107 1    
   101   51  108 1    
   102   51  109 1    
   103   52   53 2    
   104   52   54 am   BACKBONE|DICT|INTERRES
   105   54   55 1    
   106   54  110 1    
   107   55   56 1    
   108   55   59 1    
   109   55  111 1    
   110   56   57 am   BACKBONE|DICT|INTERRES
   111   56   58 2    
   112   57  112 1    
   113   57  113 1    
   114   59   60 1    
   115   59  114 1    
   116   59  115 1    
   117   60   61 1    
   118   61  116 1    
   119   61  117 1    
@<TRIPOS>SUBSTRUCTURE
     1 UNK         1 GROUP             0       ****    0 ROOT    
