@<TRIPOS>MOLECULE
3R8
117   119    1
SMALL
USER_CHARGES


@<TRIPOS>ATOM
      1 CA         16.8791  -23.6445  -40.5449 C.3       0 UNK        -0.2013 
      2 C          17.5541  -24.5140  -41.5943 C.2       0 UNK         0.4866 
      3 O          17.7853  -24.0579  -42.7143 O.2       0 UNK        -0.5176 
      4 N          17.8940  -25.7597  -41.2404 N.am      1 UNK        -0.4884 
      5 CA         18.5027  -26.7769  -42.1123 C.3       1 UNK         0.0853 
      6 C6         18.2002  -28.2083  -41.5964 C.3       10 UNK        -0.0849 
      7 S7         16.4166  -28.5948  -41.7157 S.3       10 UNK        -0.2776 
      8 C8         16.3804  -30.3671  -42.1828 C.3       10 UNK         0.0316 
      9 C9         17.1967  -30.7554  -43.4177 C.ar      10 UNK        -0.0863 
     10 C10        17.6895  -32.0610  -43.5216 C.ar      10 UNK        -0.1009 
     11 C11        18.4601  -32.4476  -44.6217 C.ar      10 UNK        -0.0712 
     12 C12        18.7421  -31.5145  -45.6239 C.ar      10 UNK        -0.0894 
     13 C13        18.2597  -30.2049  -45.5416 C.ar      10 UNK        -0.0745 
     14 C14        17.4582  -29.8467  -44.4507 C.ar      10 UNK        -0.0972 
     15 C15        18.6187  -29.2098  -46.6461 C.3       10 UNK         0.0209 
     16 S16        18.7429  -27.4791  -46.0732 S.3       10 UNK        -0.2568 
     17 C17        20.0417  -26.7966  -47.1664 C.3       10 UNK        -0.0983 
     18 CA         21.3974  -26.5684  -46.4471 C.3       3 UNK         0.0876 
     19 N          21.2212  -25.8207  -45.1999 N.am      3 UNK        -0.4424 
     20 C          22.1874  -25.3704  -44.3885 C.2       2 UNK         0.4918 
     21 O          23.3837  -25.3857  -44.6738 O.2       2 UNK        -0.4875 
     22 CA         21.7408  -24.8439  -43.0103 C.3       2 UNK         0.0481 
     23 CB         21.8148  -23.3104  -42.9661 C.3       2 UNK        -0.1831 
     24 N          20.3884  -25.2734  -42.6316 N.am      2 UNK        -0.4498 
     25 C          20.0121  -26.5319  -42.3622 C.2       1 UNK         0.5027 
     26 O          20.8034  -27.4750  -42.3572 O.2       1 UNK        -0.4969 
     27 C          22.1679  -27.8925  -46.2455 C.2       3 UNK         0.5005 
     28 O          22.9408  -28.2786  -47.1236 O.2       3 UNK        -0.5279 
     29 N          22.0014  -28.5355  -45.0797 N.am      4 UNK        -0.4463 
     30 CA         22.7584  -29.7115  -44.6485 C.3       4 UNK         0.0283 
     31 CB         21.8655  -30.5757  -43.7427 C.3       4 UNK        -0.1875 
     32 C          24.0704  -29.2822  -43.9657 C.2       4 UNK         0.4949 
     33 O          24.3248  -29.6380  -42.8151 O.2       4 UNK        -0.5039 
     34 N          24.8679  -28.4770  -44.6793 N.am      5 UNK        -0.4663 
     35 CA         26.1506  -27.8637  -44.3035 C.3       5 UNK         0.0242 
     36 CB         27.2257  -28.9358  -44.0382 C.3       5 UNK        -0.1982 
     37 C          26.0885  -26.8504  -43.1431 C.2       5 UNK         0.5017 
     38 O          26.7410  -25.8095  -43.2356 O.2       5 UNK        -0.5012 
     39 N          25.3346  -27.1585  -42.0810 N.am      6 UNK        -0.4439 
     40 CA         25.1850  -26.3231  -40.8888 C.3       6 UNK         0.0297 
     41 CB         26.4479  -26.4085  -40.0088 C.3       6 UNK        -0.2006 
     42 C          23.9381  -26.6508  -40.0539 C.2       6 UNK         0.4892 
     43 O          23.4016  -25.7331  -39.4315 O.2       6 UNK        -0.5089 
     44 N          23.5041  -27.9183  -40.0105 N.am      7 UNK        -0.4243 
     45 CA         22.4006  -28.3726  -39.1619 C.3       7 UNK         0.0196 
     46 CB         22.9049  -28.6027  -37.7236 C.3       7 UNK        -0.2007 
     47 C          21.7854  -29.6514  -39.7373 C.2       7 UNK         0.5020 
     48 O          22.4371  -30.3382  -40.5224 O.2       7 UNK        -0.5147 
     49 N          20.5455  -29.9396  -39.3183 N.am      8 UNK        -0.4734 
     50 CA         19.6870  -31.0264  -39.8034 C.3       8 UNK         0.0238 
     51 CB         18.3935  -31.0410  -38.9696 C.3       8 UNK        -0.1912 
     52 C          20.3281  -32.4251  -39.7896 C.2       8 UNK         0.5038 
     53 O          21.0850  -32.7511  -38.8720 O.2       8 UNK        -0.5046 
     54 N          19.9538  -33.2307  -40.7913 N.am      9 UNK        -0.4200 
     55 CA         20.4009  -34.6163  -41.0007 C.3       9 UNK         0.0839 
     56 C          20.0003  -35.6259  -39.8840 C.2       9 UNK         0.5513 
     57 N          19.0275  -35.3276  -39.0310 N.am      9 UNK        -0.7519 
     58 O          20.5834  -36.7034  -39.7965 O.2       9 UNK        -0.4960 
     59 C59        19.9475  -35.1515  -42.3852 C.3       10 UNK        -0.0876 
     60 S60        20.5134  -34.1257  -43.7894 S.3       10 UNK        -0.2414 
     61 C61        18.9798  -33.8733  -44.7434 C.3       10 UNK         0.0169 
     62 H62        17.4798  -22.7564  -40.3505 H         1 UNK         0.0903 
     63 H63        15.9000  -23.3230  -40.8989 H         1 UNK         0.0903 
     64 H64        16.7415  -24.1745  -39.6026 H         1 UNK         0.0903 
     65 H65        17.6896  -26.0704  -40.3011 H         1 UNK         0.3096 
     66 H66        18.0389  -26.6882  -43.0976 H         1 UNK         0.1121 
     67 H67        18.5222  -28.3151  -40.5606 H         1 UNK         0.0849 
     68 H68        18.7593  -28.9499  -42.1673 H         1 UNK         0.0849 
     69 H69        16.7140  -30.9481  -41.3237 H         1 UNK         0.0865 
     70 H70        15.3423  -30.6535  -42.3561 H         1 UNK         0.0865 
     71 H71        17.4680  -32.7836  -42.7483 H         1 UNK         0.1346 
     72 H72        19.3494  -31.8090  -46.4691 H         1 UNK         0.1412 
     73 H73        17.0546  -28.8466  -44.3925 H         1 UNK         0.1426 
     74 H74        17.8724  -29.2691  -47.4390 H         1 UNK         0.0716 
     75 H75        19.5715  -29.5011  -47.0907 H         1 UNK         0.0716 
     76 H76        19.6739  -25.8400  -47.5404 H         1 UNK         0.0695 
     77 H77        20.1633  -27.4224  -48.0528 H         1 UNK         0.0695 
     78 H78        22.0190  -25.9502  -47.0985 H         1 UNK         0.0983 
     79 H79        20.2661  -25.7398  -44.8841 H         1 UNK         0.3095 
     80 H80        22.4380  -25.2412  -42.2708 H         1 UNK         0.0454 
     81 H81        21.1215  -22.8516  -43.6722 H         1 UNK         0.0851 
     82 H82        22.8170  -22.9603  -43.2176 H         1 UNK         0.0851 
     83 H83        21.5819  -22.9311  -41.9710 H         1 UNK         0.0851 
     84 H84        19.6544  -24.5703  -42.6513 H         1 UNK         0.2976 
     85 H85        21.3984  -28.1215  -44.3782 H         1 UNK         0.3116 
     86 H86        23.0291  -30.3162  -45.5164 H         1 UNK         0.0646 
     87 H87        21.0196  -30.9778  -44.2939 H         1 UNK         0.0847 
     88 H88        21.4704  -30.0054  -42.9031 H         1 UNK         0.0847 
     89 H89        22.4137  -31.4251  -43.3331 H         1 UNK         0.0847 
     90 H90        24.5281  -28.2216  -45.5999 H         1 UNK         0.3040 
     91 H91        26.4661  -27.2976  -45.1818 H         1 UNK         0.1015 
     92 H92        26.9887  -29.5463  -43.1664 H         1 UNK         0.0786 
     93 H93        28.1970  -28.4745  -43.8543 H         1 UNK         0.0786 
     94 H94        27.3406  -29.6021  -44.8931 H         1 UNK         0.0786 
     95 H95        24.8293  -28.0416  -42.1205 H         1 UNK         0.3172 
     96 H96        25.0678  -25.2889  -41.2209 H         1 UNK         0.0595 
     97 H97        26.6522  -27.4342  -39.6999 H         1 UNK         0.0839 
     98 H98        26.3357  -25.8107  -39.1030 H         1 UNK         0.0839 
     99 H99        27.3287  -26.0340  -40.5303 H         1 UNK         0.0839 
    100 H100       23.9175  -28.6479  -40.5793 H         1 UNK         0.2998 
    101 H101       21.6208  -27.6073  -39.1573 H         1 UNK         0.0822 
    102 H102       23.2946  -27.6839  -37.2850 H         1 UNK         0.0787 
    103 H103       22.1022  -28.9529  -37.0735 H         1 UNK         0.0787 
    104 H104       23.6985  -29.3505  -37.6939 H         1 UNK         0.0787 
    105 H105       20.1340  -29.3358  -38.6219 H         1 UNK         0.3055 
    106 H106       19.4376  -30.7878  -40.8387 H         1 UNK         0.1106 
    107 H107       18.6021  -31.2096  -37.9122 H         1 UNK         0.0828 
    108 H108       17.7208  -31.8360  -39.2937 H         1 UNK         0.0828 
    109 H109       17.8450  -30.1033  -39.0563 H         1 UNK         0.0828 
    110 H110       19.3437  -32.8677  -41.5065 H         1 UNK         0.2931 
    111 H111       21.4923  -34.5877  -41.0013 H         1 UNK         0.0412 
    112 H112       18.7807  -35.9910  -38.3131 H         1 UNK         0.3472 
    113 H113       18.5466  -34.4452  -39.0889 H         1 UNK         0.3472 
    114 H114       18.8609  -35.2482  -42.4045 H         1 UNK         0.0970 
    115 H115       20.3376  -36.1584  -42.5476 H         1 UNK         0.0970 
    116 H116       18.2062  -34.5800  -44.4418 H         1 UNK         0.0612 
    117 H117       19.1912  -34.1018  -45.7891 H         1 UNK         0.0612 
@<TRIPOS>BOND
     1    1    2 1    
     2    1   62 1    
     3    1   63 1    
     4    1   64 1    
     5    2    3 2    
     6    2    4 am   BACKBONE|DICT|INTERRES
     7    4    5 1    
     8    4   65 1    
     9    5    6 1    
    10    5   25 1    
    11    5   66 1    
    12    6    7 1    
    13    6   67 1    
    14    6   68 1    
    15    7    8 1    
    16    8    9 1    
    17    8   69 1    
    18    8   70 1    
    19    9   10 ar   
    20    9   14 ar   
    21   10   11 ar   
    22   10   71 1    
    23   11   12 ar   
    24   11   61 1    
    25   12   13 ar   
    26   12   72 1    
    27   13   14 ar   
    28   13   15 1    
    29   14   73 1    
    30   15   16 1    
    31   15   74 1    
    32   15   75 1    
    33   16   17 1    
    34   17   18 1    
    35   17   76 1    
    36   17   77 1    
    37   18   19 1    
    38   18   27 1    
    39   18   78 1    
    40   19   20 am   BACKBONE|DICT|INTERRES
    41   19   79 1    
    42   20   21 2    
    43   20   22 1    
    44   22   23 1    
    45   22   24 1    
    46   22   80 1    
    47   23   81 1    
    48   23   82 1    
    49   23   83 1    
    50   24   25 am   BACKBONE|DICT|INTERRES
    51   24   84 1    
    52   25   26 2    
    53   27   28 2    
    54   27   29 am   BACKBONE|DICT|INTERRES
    55   29   30 1    
    56   29   85 1    
    57   30   31 1    
    58   30   32 1    
    59   30   86 1    
    60   31   87 1    
    61   31   88 1    
    62   31   89 1    
    63   32   33 2    
    64   32   34 am   BACKBONE|DICT|INTERRES
    65   34   35 1    
    66   34   90 1    
    67   35   36 1    
    68   35   37 1    
    69   35   91 1    
    70   36   92 1    
    71   36   93 1    
    72   36   94 1    
    73   37   38 2    
    74   37   39 am   BACKBONE|DICT|INTERRES
    75   39   40 1    
    76   39   95 1    
    77   40   41 1    
    78   40   42 1    
    79   40   96 1    
    80   41   97 1    
    81   41   98 1    
    82   41   99 1    
    83   42   43 2    
    84   42   44 am   BACKBONE|DICT|INTERRES
    85   44   45 1    
    86   44  100 1    
    87   45   46 1    
    88   45   47 1    
    89   45  101 1    
    90   46  102 1    
    91   46  103 1    
    92   46  104 1    
    93   47   48 2    
    94   47   49 am   BACKBONE|DICT|INTERRES
    95   49   50 1    
    96   49  105 1    
    97   50   51 1    
    98   50   52 1    
    99   50  106 1    
   100   51  107 1    
   101   51  108 1    
   102   51  109 1    
   103   52   53 2    
   104   52   54 am   BACKBONE|DICT|INTERRES
   105   54   55 1    
   106   54  110 1    
   107   55   56 1    
   108   55   59 1    
   109   55  111 1    
   110   56   57 am   BACKBONE|DICT|INTERRES
   111   56   58 2    
   112   57  112 1    
   113   57  113 1    
   114   59   60 1    
   115   59  114 1    
   116   59  115 1    
   117   60   61 1    
   118   61  116 1    
   119   61  117 1    
@<TRIPOS>SUBSTRUCTURE
     1 UNK         1 GROUP             0       ****    0 ROOT    
