@<TRIPOS>MOLECULE
3R8
117   119    1
SMALL
USER_CHARGES


@<TRIPOS>ATOM
      1 CA         15.5963  -23.3110  -47.5597 C.3       0 UNK        -0.2013 
      2 C          15.5224  -24.5523  -46.6822 C.2       0 UNK         0.4866 
      3 O          14.4701  -24.8206  -46.1011 O.2       0 UNK        -0.5176 
      4 N          16.6311  -25.3016  -46.5946 N.am      1 UNK        -0.4884 
      5 CA         16.8267  -26.5213  -45.7935 C.3       1 UNK         0.0853 
      6 C6         15.8721  -27.6850  -46.1964 C.3       10 UNK        -0.0849 
      7 S7         16.4006  -28.4167  -47.7807 S.3       10 UNK        -0.2776 
      8 C8         17.1250  -30.0041  -47.2418 C.3       10 UNK         0.0316 
      9 C9         18.1609  -29.8501  -46.1315 C.ar      10 UNK        -0.0863 
     10 C10        17.9559  -30.4650  -44.8920 C.ar      10 UNK        -0.1009 
     11 C11        18.9127  -30.3590  -43.8785 C.ar      10 UNK        -0.0712 
     12 C12        20.0743  -29.6146  -44.1043 C.ar      10 UNK        -0.0894 
     13 C13        20.2897  -28.9890  -45.3353 C.ar      10 UNK        -0.0745 
     14 C14        19.3336  -29.1190  -46.3480 C.ar      10 UNK        -0.0972 
     15 C15        21.5697  -28.2060  -45.5912 C.3       10 UNK         0.0209 
     16 S16        21.4370  -26.4760  -45.0355 S.3       10 UNK        -0.2568 
     17 C17        22.0209  -26.5719  -43.3067 C.3       10 UNK        -0.0983 
     18 CA         20.9908  -26.0137  -42.2939 C.3       3 UNK         0.0876 
     19 N          19.7156  -26.7311  -42.3744 N.am      3 UNK        -0.4424 
     20 C          18.6024  -26.4584  -41.6803 C.2       2 UNK         0.4918 
     21 O          18.5077  -25.5616  -40.8401 O.2       2 UNK        -0.4875 
     22 CA         17.3768  -27.3177  -42.0480 C.3       2 UNK         0.0481 
     23 CB         16.1025  -26.9340  -41.2663 C.3       2 UNK        -0.1831 
     24 N          17.1339  -27.3164  -43.4974 N.am      2 UNK        -0.4498 
     25 C          16.8612  -26.2518  -44.2718 C.2       1 UNK         0.5027 
     26 O          16.7084  -25.1086  -43.8336 O.2       1 UNK        -0.4969 
     27 C          21.5820  -26.0177  -40.8674 C.2       3 UNK         0.5005 
     28 O          21.4858  -27.0264  -40.1641 O.2       3 UNK        -0.5279 
     29 N          22.1995  -24.8936  -40.4772 N.am      4 UNK        -0.4463 
     30 CA         22.7920  -24.6860  -39.1508 C.3       4 UNK         0.0283 
     31 CB         23.0072  -23.1801  -38.9260 C.3       4 UNK        -0.1875 
     32 C          24.1090  -25.4513  -38.9250 C.2       4 UNK         0.4949 
     33 O          24.4761  -25.6837  -37.7728 O.2       4 UNK        -0.5039 
     34 N          24.7979  -25.8204  -40.0098 N.am      5 UNK        -0.4663 
     35 CA         26.0399  -26.5865  -40.0080 C.3       5 UNK         0.0242 
     36 CB         27.2418  -25.6308  -39.9007 C.3       5 UNK        -0.1982 
     37 C          26.1047  -27.4136  -41.2960 C.2       5 UNK         0.5017 
     38 O          25.4793  -27.0351  -42.2900 O.2       5 UNK        -0.5012 
     39 N          26.8602  -28.5216  -41.2473 N.am      6 UNK        -0.4439 
     40 CA         27.0939  -29.4885  -42.3332 C.3       6 UNK         0.0297 
     41 CB         27.9104  -28.8399  -43.4719 C.3       6 UNK        -0.2006 
     42 C          25.8143  -30.1853  -42.8480 C.2       6 UNK         0.4892 
     43 O          25.7773  -30.6238  -43.9987 O.2       6 UNK        -0.5089 
     44 N          24.7895  -30.2695  -41.9891 N.am      7 UNK        -0.4243 
     45 CA         23.4810  -30.8407  -42.2984 C.3       7 UNK         0.0196 
     46 CB         22.4639  -30.3612  -41.2478 C.3       7 UNK        -0.2007 
     47 C          23.5096  -32.3732  -42.3633 C.2       7 UNK         0.5020 
     48 O          23.0899  -32.9485  -43.3660 O.2       7 UNK        -0.5147 
     49 N          23.9659  -32.9944  -41.2634 N.am      8 UNK        -0.4734 
     50 CA         23.9456  -34.4403  -40.9785 C.3       8 UNK         0.0238 
     51 CB         24.8439  -35.2134  -41.9679 C.3       8 UNK        -0.1912 
     52 C          22.5261  -35.0472  -40.8755 C.2       8 UNK         0.5038 
     53 O          22.3864  -36.2713  -40.9099 O.2       8 UNK        -0.5046 
     54 N          21.5054  -34.1904  -40.7438 N.am      9 UNK        -0.4200 
     55 CA         20.0890  -34.5523  -40.6052 C.3       9 UNK         0.0839 
     56 C          19.7703  -35.1379  -39.2040 C.2       9 UNK         0.5513 
     57 N          18.8107  -36.0486  -39.1181 N.am      9 UNK        -0.7519 
     58 O          20.3524  -34.7464  -38.1941 O.2       9 UNK        -0.4960 
     59 C59        19.1647  -33.3475  -40.9284 C.3       10 UNK        -0.0876 
     60 S60        19.3895  -32.7615  -42.6414 S.3       10 UNK        -0.2414 
     61 C61        18.7063  -31.0791  -42.5547 C.3       10 UNK         0.0169 
     62 H62        14.8495  -23.3665  -48.3513 H         1 UNK         0.0903 
     63 H63        15.3972  -22.4197  -46.9651 H         1 UNK         0.0903 
     64 H64        16.5749  -23.1960  -48.0253 H         1 UNK         0.0903 
     65 H65        17.4554  -24.9941  -47.0918 H         1 UNK         0.3096 
     66 H66        17.8482  -26.8308  -46.0167 H         1 UNK         0.1121 
     67 H67        15.8325  -28.4764  -45.4477 H         1 UNK         0.0849 
     68 H68        14.8415  -27.3440  -46.2937 H         1 UNK         0.0849 
     69 H69        16.3167  -30.6664  -46.9272 H         1 UNK         0.0865 
     70 H70        17.5941  -30.4871  -48.1001 H         1 UNK         0.0865 
     71 H71        17.0626  -31.0509  -44.7206 H         1 UNK         0.1346 
     72 H72        20.8218  -29.5399  -43.3294 H         1 UNK         0.1412 
     73 H73        19.4989  -28.6490  -47.3084 H         1 UNK         0.1426 
     74 H74        22.4209  -28.6953  -45.1149 H         1 UNK         0.0716 
     75 H75        21.7913  -28.2053  -46.6596 H         1 UNK         0.0716 
     76 H76        22.9528  -26.0057  -43.2519 H         1 UNK         0.0695 
     77 H77        22.2857  -27.6005  -43.0580 H         1 UNK         0.0695 
     78 H78        20.7752  -24.9771  -42.5621 H         1 UNK         0.0983 
     79 H79        19.6788  -27.4658  -43.0645 H         1 UNK         0.3095 
     80 H80        17.6274  -28.3439  -41.7769 H         1 UNK         0.0454 
     81 H81        15.2643  -27.5769  -41.5341 H         1 UNK         0.0851 
     82 H82        15.8049  -25.9012  -41.4496 H         1 UNK         0.0851 
     83 H83        16.2604  -27.0380  -40.1923 H         1 UNK         0.0851 
     84 H84        17.2755  -28.2070  -43.9553 H         1 UNK         0.2976 
     85 H85        22.2455  -24.1123  -41.1166 H         1 UNK         0.3116 
     86 H86        22.0794  -25.0405  -38.4027 H         1 UNK         0.0646 
     87 H87        22.0698  -22.6283  -38.9990 H         1 UNK         0.0847 
     88 H88        23.4153  -22.9885  -37.9324 H         1 UNK         0.0847 
     89 H89        23.7053  -22.7580  -39.6500 H         1 UNK         0.0847 
     90 H90        24.4141  -25.6463  -40.9300 H         1 UNK         0.3040 
     91 H91        26.0402  -27.2724  -39.1575 H         1 UNK         0.1015 
     92 H92        27.2717  -24.9280  -40.7344 H         1 UNK         0.0786 
     93 H93        28.1838  -26.1806  -39.9022 H         1 UNK         0.0786 
     94 H94        27.2073  -25.0524  -38.9772 H         1 UNK         0.0786 
     95 H95        27.3311  -28.7335  -40.3774 H         1 UNK         0.3172 
     96 H96        27.7081  -30.2809  -41.9029 H         1 UNK         0.0595 
     97 H97        27.3342  -28.0794  -43.9999 H         1 UNK         0.0839 
     98 H98        28.2171  -29.5833  -44.2087 H         1 UNK         0.0839 
     99 H99        28.8181  -28.3703  -43.0931 H         1 UNK         0.0839 
    100 H100       24.9142  -29.8827  -41.0658 H         1 UNK         0.2998 
    101 H101       23.1642  -30.4720  -43.2767 H         1 UNK         0.0822 
    102 H102       22.3216  -29.2829  -41.3019 H         1 UNK         0.0787 
    103 H103       21.4910  -30.8255  -41.4027 H         1 UNK         0.0787 
    104 H104       22.7758  -30.5997  -40.2305 H         1 UNK         0.0787 
    105 H105       24.2990  -32.4133  -40.5061 H         1 UNK         0.3055 
    106 H106       24.3819  -34.5572  -39.9851 H         1 UNK         0.1106 
    107 H107       25.8424  -34.7796  -42.0203 H         1 UNK         0.0828 
    108 H108       24.9606  -36.2534  -41.6608 H         1 UNK         0.0828 
    109 H109       24.4273  -35.2202  -42.9754 H         1 UNK         0.0828 
    110 H110       21.7153  -33.2057  -40.7134 H         1 UNK         0.2931 
    111 H111       19.8844  -35.3338  -41.3405 H         1 UNK         0.0412 
    112 H112       18.3217  -36.3701  -39.9396 H         1 UNK         0.3472 
    113 H113       18.5768  -36.4316  -38.2149 H         1 UNK         0.3472 
    114 H114       18.1154  -33.6227  -40.8050 H         1 UNK         0.0970 
    115 H115       19.3509  -32.5255  -40.2344 H         1 UNK         0.0970 
    116 H116       17.6435  -31.1325  -42.3136 H         1 UNK         0.0612 
    117 H117       19.1803  -30.5233  -41.7448 H         1 UNK         0.0612 
@<TRIPOS>BOND
     1    1    2 1    
     2    1   62 1    
     3    1   63 1    
     4    1   64 1    
     5    2    3 2    
     6    2    4 am   BACKBONE|DICT|INTERRES
     7    4    5 1    
     8    4   65 1    
     9    5    6 1    
    10    5   25 1    
    11    5   66 1    
    12    6    7 1    
    13    6   67 1    
    14    6   68 1    
    15    7    8 1    
    16    8    9 1    
    17    8   69 1    
    18    8   70 1    
    19    9   10 ar   
    20    9   14 ar   
    21   10   11 ar   
    22   10   71 1    
    23   11   12 ar   
    24   11   61 1    
    25   12   13 ar   
    26   12   72 1    
    27   13   14 ar   
    28   13   15 1    
    29   14   73 1    
    30   15   16 1    
    31   15   74 1    
    32   15   75 1    
    33   16   17 1    
    34   17   18 1    
    35   17   76 1    
    36   17   77 1    
    37   18   19 1    
    38   18   27 1    
    39   18   78 1    
    40   19   20 am   BACKBONE|DICT|INTERRES
    41   19   79 1    
    42   20   21 2    
    43   20   22 1    
    44   22   23 1    
    45   22   24 1    
    46   22   80 1    
    47   23   81 1    
    48   23   82 1    
    49   23   83 1    
    50   24   25 am   BACKBONE|DICT|INTERRES
    51   24   84 1    
    52   25   26 2    
    53   27   28 2    
    54   27   29 am   BACKBONE|DICT|INTERRES
    55   29   30 1    
    56   29   85 1    
    57   30   31 1    
    58   30   32 1    
    59   30   86 1    
    60   31   87 1    
    61   31   88 1    
    62   31   89 1    
    63   32   33 2    
    64   32   34 am   BACKBONE|DICT|INTERRES
    65   34   35 1    
    66   34   90 1    
    67   35   36 1    
    68   35   37 1    
    69   35   91 1    
    70   36   92 1    
    71   36   93 1    
    72   36   94 1    
    73   37   38 2    
    74   37   39 am   BACKBONE|DICT|INTERRES
    75   39   40 1    
    76   39   95 1    
    77   40   41 1    
    78   40   42 1    
    79   40   96 1    
    80   41   97 1    
    81   41   98 1    
    82   41   99 1    
    83   42   43 2    
    84   42   44 am   BACKBONE|DICT|INTERRES
    85   44   45 1    
    86   44  100 1    
    87   45   46 1    
    88   45   47 1    
    89   45  101 1    
    90   46  102 1    
    91   46  103 1    
    92   46  104 1    
    93   47   48 2    
    94   47   49 am   BACKBONE|DICT|INTERRES
    95   49   50 1    
    96   49  105 1    
    97   50   51 1    
    98   50   52 1    
    99   50  106 1    
   100   51  107 1    
   101   51  108 1    
   102   51  109 1    
   103   52   53 2    
   104   52   54 am   BACKBONE|DICT|INTERRES
   105   54   55 1    
   106   54  110 1    
   107   55   56 1    
   108   55   59 1    
   109   55  111 1    
   110   56   57 am   BACKBONE|DICT|INTERRES
   111   56   58 2    
   112   57  112 1    
   113   57  113 1    
   114   59   60 1    
   115   59  114 1    
   116   59  115 1    
   117   60   61 1    
   118   61  116 1    
   119   61  117 1    
@<TRIPOS>SUBSTRUCTURE
     1 UNK         1 GROUP             0       ****    0 ROOT    
