@<TRIPOS>MOLECULE
3R8
117   119    1
SMALL
USER_CHARGES


@<TRIPOS>ATOM
      1 CA         19.9404  -29.2051  -42.3153 C.3       0 UNK        -0.2013 
      2 C          18.6447  -28.4193  -42.2558 C.2       0 UNK         0.4866 
      3 O          18.3903  -27.7468  -41.2579 O.2       0 UNK        -0.5176 
      4 N          17.8332  -28.4824  -43.3207 N.am      1 UNK        -0.4884 
      5 CA         16.5369  -27.7940  -43.4337 C.3       1 UNK         0.0853 
      6 C6         15.7541  -28.2284  -44.6955 C.3       10 UNK        -0.0849 
      7 S7         15.4568  -30.0291  -44.7375 S.3       10 UNK        -0.2776 
      8 C8         16.2900  -30.5209  -46.2809 C.3       10 UNK         0.0316 
      9 C9         17.8082  -30.5269  -46.1540 C.ar      10 UNK        -0.0863 
     10 C10        18.4514  -31.5843  -45.5025 C.ar      10 UNK        -0.1009 
     11 C11        19.8473  -31.6377  -45.4411 C.ar      10 UNK        -0.0712 
     12 C12        20.6013  -30.6160  -46.0264 C.ar      10 UNK        -0.0894 
     13 C13        19.9713  -29.5585  -46.6890 C.ar      10 UNK        -0.0745 
     14 C14        18.5742  -29.5157  -46.7439 C.ar      10 UNK        -0.0972 
     15 C15        20.8005  -28.5035  -47.4097 C.3       10 UNK         0.0209 
     16 S16        20.6917  -26.8678  -46.6252 S.3       10 UNK        -0.2568 
     17 C17        21.6984  -27.1165  -45.1261 C.3       10 UNK        -0.0983 
     18 CA         21.7554  -25.8482  -44.2299 C.3       3 UNK         0.0876 
     19 N          20.4233  -25.4407  -43.7896 N.am      3 UNK        -0.4424 
     20 C          19.7403  -24.3871  -44.2560 C.2       2 UNK         0.4918 
     21 O          20.2362  -23.4996  -44.9515 O.2       2 UNK        -0.4875 
     22 CA         18.2331  -24.3783  -43.9465 C.3       2 UNK         0.0481 
     23 CB         17.4260  -23.4597  -44.8851 C.3       2 UNK        -0.1831 
     24 N          17.7388  -25.7527  -44.0278 N.am      2 UNK        -0.4498 
     25 C          16.6816  -26.2579  -43.3835 C.2       1 UNK         0.5027 
     26 O          15.8753  -25.5831  -42.7417 O.2       1 UNK        -0.4969 
     27 C          22.6135  -26.0623  -42.9759 C.2       3 UNK         0.5005 
     28 O          22.8754  -27.2056  -42.5965 O.2       3 UNK        -0.5279 
     29 N          23.0220  -24.9599  -42.3321 N.am      4 UNK        -0.4463 
     30 CA         23.7853  -24.9413  -41.0746 C.3       4 UNK         0.0283 
     31 CB         23.9806  -23.4847  -40.6239 C.3       4 UNK        -0.1875 
     32 C          25.1415  -25.6746  -41.1176 C.2       4 UNK         0.4949 
     33 O          25.6382  -26.0790  -40.0670 O.2       4 UNK        -0.5039 
     34 N          25.7063  -25.8523  -42.3201 N.am      5 UNK        -0.4663 
     35 CA         26.9000  -26.6651  -42.5664 C.3       5 UNK         0.0242 
     36 CB         27.4428  -26.3475  -43.9693 C.3       5 UNK        -0.1982 
     37 C          26.6486  -28.1788  -42.4173 C.2       5 UNK         0.5017 
     38 O          27.5939  -28.9107  -42.1215 O.2       5 UNK        -0.5012 
     39 N          25.3994  -28.6187  -42.6271 N.am      6 UNK        -0.4439 
     40 CA         24.9574  -30.0011  -42.4458 C.3       6 UNK         0.0297 
     41 CB         23.9648  -30.3809  -43.5594 C.3       6 UNK        -0.2006 
     42 C          24.3311  -30.1697  -41.0547 C.2       6 UNK         0.4892 
     43 O          24.7856  -31.0207  -40.2890 O.2       6 UNK        -0.5089 
     44 N          23.3301  -29.3272  -40.7535 N.am      7 UNK        -0.4243 
     45 CA         22.5747  -29.1783  -39.5019 C.3       7 UNK         0.0196 
     46 CB         23.4789  -28.6436  -38.3749 C.3       7 UNK        -0.2007 
     47 C          21.7943  -30.4223  -39.0364 C.2       7 UNK         0.5020 
     48 O          20.5778  -30.3464  -38.8656 O.2       7 UNK        -0.5147 
     49 N          22.4915  -31.5410  -38.8166 N.am      8 UNK        -0.4734 
     50 CA         21.9851  -32.7782  -38.2120 C.3       8 UNK         0.0238 
     51 CB         23.1662  -33.5197  -37.5572 C.3       8 UNK        -0.1912 
     52 C          21.1981  -33.6701  -39.1950 C.2       8 UNK         0.5038 
     53 O          21.4086  -34.8846  -39.2229 O.2       8 UNK        -0.5046 
     54 N          20.3074  -33.0571  -39.9809 N.am      9 UNK        -0.4200 
     55 CA         19.4452  -33.7266  -40.9701 C.3       9 UNK         0.0839 
     56 C          18.0650  -34.1657  -40.4022 C.2       9 UNK         0.5513 
     57 N          17.7285  -33.8645  -39.1534 N.am      9 UNK        -0.7519 
     58 O          17.2875  -34.8055  -41.1056 O.2       9 UNK        -0.4960 
     59 C59        19.2850  -32.8757  -42.2561 C.3       10 UNK        -0.0876 
     60 S60        20.8992  -32.5215  -43.0345 S.3       10 UNK        -0.2414 
     61 C61        20.5489  -32.8219  -44.7915 C.3       10 UNK         0.0169 
     62 H62        20.7829  -28.5453  -42.1297 H         1 UNK         0.0903 
     63 H63        19.9475  -29.9739  -41.5454 H         1 UNK         0.0903 
     64 H64        20.0853  -29.6804  -43.2839 H         1 UNK         0.0903 
     65 H65        18.0739  -29.0817  -44.1000 H         1 UNK         0.3096 
     66 H66        15.9476  -28.0791  -42.5589 H         1 UNK         0.1121 
     67 H67        16.2774  -27.9165  -45.6011 H         1 UNK         0.0849 
     68 H68        14.7808  -27.7345  -44.7258 H         1 UNK         0.0849 
     69 H69        15.9530  -31.5225  -46.5527 H         1 UNK         0.0865 
     70 H70        15.9683  -29.8692  -47.0949 H         1 UNK         0.0865 
     71 H71        17.8624  -32.3786  -45.0648 H         1 UNK         0.1346 
     72 H72        21.6812  -30.6622  -45.9904 H         1 UNK         0.1412 
     73 H73        18.0881  -28.7075  -47.2737 H         1 UNK         0.1426 
     74 H74        20.4466  -28.4197  -48.4382 H         1 UNK         0.0716 
     75 H75        21.8479  -28.8030  -47.4739 H         1 UNK         0.0716 
     76 H76        22.7038  -27.4104  -45.4339 H         1 UNK         0.0695 
     77 H77        21.2845  -27.9635  -44.5782 H         1 UNK         0.0695 
     78 H78        22.2281  -25.0510  -44.8082 H         1 UNK         0.0983 
     79 H79        19.9656  -26.0638  -43.1405 H         1 UNK         0.3095 
     80 H80        18.1215  -24.0199  -42.9213 H         1 UNK         0.0454 
     81 H81        17.7709  -22.4274  -44.8154 H         1 UNK         0.0851 
     82 H82        16.3660  -23.4613  -44.6315 H         1 UNK         0.0851 
     83 H83        17.5222  -23.7682  -45.9267 H         1 UNK         0.0851 
     84 H84        18.3245  -26.3913  -44.5500 H         1 UNK         0.2976 
     85 H85        22.7484  -24.0607  -42.7039 H         1 UNK         0.3116 
     86 H86        23.1774  -25.4504  -40.3234 H         1 UNK         0.0646 
     87 H87        24.5179  -23.4376  -39.6754 H         1 UNK         0.0847 
     88 H88        24.5554  -22.9105  -41.3516 H         1 UNK         0.0847 
     89 H89        23.0251  -22.9816  -40.4754 H         1 UNK         0.0847 
     90 H90        25.2435  -25.4607  -43.1271 H         1 UNK         0.3040 
     91 H91        27.6605  -26.3876  -41.8326 H         1 UNK         0.1015 
     92 H92        28.3510  -26.9165  -44.1737 H         1 UNK         0.0786 
     93 H93        27.6958  -25.2917  -44.0678 H         1 UNK         0.0786 
     94 H94        26.7209  -26.5958  -44.7485 H         1 UNK         0.0786 
     95 H95        24.6675  -27.9351  -42.7934 H         1 UNK         0.3172 
     96 H96        25.8108  -30.6787  -42.5187 H         1 UNK         0.0595 
     97 H97        23.0571  -29.7770  -43.5345 H         1 UNK         0.0839 
     98 H98        23.6638  -31.4246  -43.4656 H         1 UNK         0.0839 
     99 H99        24.4140  -30.2639  -44.5455 H         1 UNK         0.0839 
    100 H100       23.0741  -28.6545  -41.4735 H         1 UNK         0.2998 
    101 H101       21.8286  -28.4084  -39.7065 H         1 UNK         0.0822 
    102 H102       22.9098  -28.4873  -37.4575 H         1 UNK         0.0787 
    103 H103       24.2920  -29.3313  -38.1405 H         1 UNK         0.0787 
    104 H104       23.9217  -27.6858  -38.6469 H         1 UNK         0.0787 
    105 H105       23.4690  -31.5305  -39.1023 H         1 UNK         0.3055 
    106 H106       21.2864  -32.5084  -37.4169 H         1 UNK         0.1106 
    107 H107       23.6756  -32.8894  -36.8281 H         1 UNK         0.0828 
    108 H108       22.8281  -34.4116  -37.0277 H         1 UNK         0.0828 
    109 H109       23.9012  -33.8368  -38.2981 H         1 UNK         0.0828 
    110 H110       20.1849  -32.0576  -39.8651 H         1 UNK         0.2931 
    111 H111       19.9331  -34.6550  -41.2735 H         1 UNK         0.0412 
    112 H112       18.3577  -33.3428  -38.5646 H         1 UNK         0.3472 
    113 H113       16.8330  -34.1615  -38.7978 H         1 UNK         0.3472 
    114 H114       18.6537  -33.4019  -42.9736 H         1 UNK         0.0970 
    115 H115       18.7736  -31.9370  -42.0412 H         1 UNK         0.0970 
    116 H116       21.4944  -33.0108  -45.3021 H         1 UNK         0.0612 
    117 H117       19.9596  -33.7326  -44.9076 H         1 UNK         0.0612 
@<TRIPOS>BOND
     1    1    2 1    
     2    1   62 1    
     3    1   63 1    
     4    1   64 1    
     5    2    3 2    
     6    2    4 am   BACKBONE|DICT|INTERRES
     7    4    5 1    
     8    4   65 1    
     9    5    6 1    
    10    5   25 1    
    11    5   66 1    
    12    6    7 1    
    13    6   67 1    
    14    6   68 1    
    15    7    8 1    
    16    8    9 1    
    17    8   69 1    
    18    8   70 1    
    19    9   10 ar   
    20    9   14 ar   
    21   10   11 ar   
    22   10   71 1    
    23   11   12 ar   
    24   11   61 1    
    25   12   13 ar   
    26   12   72 1    
    27   13   14 ar   
    28   13   15 1    
    29   14   73 1    
    30   15   16 1    
    31   15   74 1    
    32   15   75 1    
    33   16   17 1    
    34   17   18 1    
    35   17   76 1    
    36   17   77 1    
    37   18   19 1    
    38   18   27 1    
    39   18   78 1    
    40   19   20 am   BACKBONE|DICT|INTERRES
    41   19   79 1    
    42   20   21 2    
    43   20   22 1    
    44   22   23 1    
    45   22   24 1    
    46   22   80 1    
    47   23   81 1    
    48   23   82 1    
    49   23   83 1    
    50   24   25 am   BACKBONE|DICT|INTERRES
    51   24   84 1    
    52   25   26 2    
    53   27   28 2    
    54   27   29 am   BACKBONE|DICT|INTERRES
    55   29   30 1    
    56   29   85 1    
    57   30   31 1    
    58   30   32 1    
    59   30   86 1    
    60   31   87 1    
    61   31   88 1    
    62   31   89 1    
    63   32   33 2    
    64   32   34 am   BACKBONE|DICT|INTERRES
    65   34   35 1    
    66   34   90 1    
    67   35   36 1    
    68   35   37 1    
    69   35   91 1    
    70   36   92 1    
    71   36   93 1    
    72   36   94 1    
    73   37   38 2    
    74   37   39 am   BACKBONE|DICT|INTERRES
    75   39   40 1    
    76   39   95 1    
    77   40   41 1    
    78   40   42 1    
    79   40   96 1    
    80   41   97 1    
    81   41   98 1    
    82   41   99 1    
    83   42   43 2    
    84   42   44 am   BACKBONE|DICT|INTERRES
    85   44   45 1    
    86   44  100 1    
    87   45   46 1    
    88   45   47 1    
    89   45  101 1    
    90   46  102 1    
    91   46  103 1    
    92   46  104 1    
    93   47   48 2    
    94   47   49 am   BACKBONE|DICT|INTERRES
    95   49   50 1    
    96   49  105 1    
    97   50   51 1    
    98   50   52 1    
    99   50  106 1    
   100   51  107 1    
   101   51  108 1    
   102   51  109 1    
   103   52   53 2    
   104   52   54 am   BACKBONE|DICT|INTERRES
   105   54   55 1    
   106   54  110 1    
   107   55   56 1    
   108   55   59 1    
   109   55  111 1    
   110   56   57 am   BACKBONE|DICT|INTERRES
   111   56   58 2    
   112   57  112 1    
   113   57  113 1    
   114   59   60 1    
   115   59  114 1    
   116   59  115 1    
   117   60   61 1    
   118   61  116 1    
   119   61  117 1    
@<TRIPOS>SUBSTRUCTURE
     1 UNK         1 GROUP             0       ****    0 ROOT    
