@<TRIPOS>MOLECULE
3R8
117   119    1
SMALL
USER_CHARGES


@<TRIPOS>ATOM
      1 CA         16.8194  -23.5876  -42.8478 C.3       0 UNK        -0.2013 
      2 C          16.4021  -23.7445  -44.3087 C.2       0 UNK         0.4866 
      3 O          15.8140  -22.8139  -44.8560 O.2       0 UNK        -0.5176 
      4 N          16.6720  -24.8633  -45.0015 N.am      1 UNK        -0.4884 
      5 CA         17.3534  -26.1015  -44.5887 C.3       1 UNK         0.0853 
      6 C6         16.4935  -27.0433  -43.6994 C.3       10 UNK        -0.0849 
      7 S7         14.8871  -27.5209  -44.4256 S.3       10 UNK        -0.2776 
      8 C8         15.3444  -28.5069  -45.8974 C.3       10 UNK         0.0316 
      9 C9         16.4392  -29.5428  -45.6534 C.ar      10 UNK        -0.0863 
     10 C10        16.3601  -30.4395  -44.5801 C.ar      10 UNK        -0.1009 
     11 C11        17.3792  -31.3709  -44.3575 C.ar      10 UNK        -0.0712 
     12 C12        18.4596  -31.4322  -45.2396 C.ar      10 UNK        -0.0894 
     13 C13        18.5559  -30.5389  -46.3099 C.ar      10 UNK        -0.0745 
     14 C14        17.5402  -29.6015  -46.5159 C.ar      10 UNK        -0.0972 
     15 C15        19.7818  -30.5653  -47.2140 C.3       10 UNK         0.0209 
     16 S16        20.9788  -29.2519  -46.7951 S.3       10 UNK        -0.2568 
     17 C17        21.3004  -29.5938  -45.0297 C.3       10 UNK        -0.0983 
     18 CA         22.0715  -28.4767  -44.2872 C.3       3 UNK         0.0876 
     19 N          21.5321  -27.1477  -44.5846 N.am      3 UNK        -0.4424 
     20 C          21.8802  -25.9828  -44.0214 C.2       2 UNK         0.4918 
     21 O          22.8066  -25.8561  -43.2185 O.2       2 UNK        -0.4875 
     22 CA         20.9856  -24.7710  -44.3531 C.3       2 UNK         0.0481 
     23 CB         21.6274  -23.9246  -45.4624 C.3       2 UNK        -0.1831 
     24 N          19.6044  -25.1167  -44.7349 N.am      2 UNK        -0.4498 
     25 C          18.7543  -25.8482  -43.9949 C.2       1 UNK         0.5027 
     26 O          19.0447  -26.3103  -42.8909 O.2       1 UNK        -0.4969 
     27 C          22.0614  -28.8007  -42.7787 C.2       3 UNK         0.5005 
     28 O          23.0052  -29.4225  -42.2930 O.2       3 UNK        -0.5279 
     29 N          21.0164  -28.3542  -42.0614 N.am      4 UNK        -0.4463 
     30 CA         20.8363  -28.5608  -40.6229 C.3       4 UNK         0.0283 
     31 CB         19.4407  -28.0769  -40.2005 C.3       4 UNK        -0.1875 
     32 C          21.9218  -27.8853  -39.7667 C.2       4 UNK         0.4949 
     33 O          22.2277  -28.3862  -38.6854 O.2       4 UNK        -0.5039 
     34 N          22.4923  -26.7822  -40.2682 N.am      5 UNK        -0.4663 
     35 CA         23.6372  -26.1036  -39.6644 C.3       5 UNK         0.0242 
     36 CB         23.5209  -24.5902  -39.9119 C.3       5 UNK        -0.1982 
     37 C          24.9623  -26.6437  -40.2231 C.2       5 UNK         0.5017 
     38 O          25.9036  -26.8394  -39.4540 O.2       5 UNK        -0.5012 
     39 N          25.0204  -26.8495  -41.5472 N.am      6 UNK        -0.4439 
     40 CA         26.2344  -27.2266  -42.2742 C.3       6 UNK         0.0297 
     41 CB         26.0233  -26.9862  -43.7776 C.3       6 UNK        -0.2006 
     42 C          26.7124  -28.6679  -42.0231 C.2       6 UNK         0.4892 
     43 O          27.9225  -28.8812  -41.9339 O.2       6 UNK        -0.5089 
     44 N          25.7781  -29.6248  -41.9483 N.am      7 UNK        -0.4243 
     45 CA         26.0659  -31.0618  -41.8620 C.3       7 UNK         0.0196 
     46 CB         25.8333  -31.6987  -43.2433 C.3       7 UNK        -0.2007 
     47 C          25.2362  -31.7913  -40.7926 C.2       7 UNK         0.5020 
     48 O          25.6976  -32.8213  -40.3003 O.2       7 UNK        -0.5147 
     49 N          24.0539  -31.2526  -40.4593 N.am      8 UNK        -0.4734 
     50 CA         22.9963  -31.7913  -39.5928 C.3       8 UNK         0.0238 
     51 CB         23.5257  -32.3358  -38.2501 C.3       8 UNK        -0.1912 
     52 C          22.1234  -32.8233  -40.3277 C.2       8 UNK         0.5038 
     53 O          22.6356  -33.6389  -41.0975 O.2       8 UNK        -0.5046 
     54 N          20.8122  -32.7739  -40.0598 N.am      9 UNK        -0.4200 
     55 CA         19.8056  -33.6971  -40.6147 C.3       9 UNK         0.0839 
     56 C          19.7615  -35.0889  -39.9173 C.2       9 UNK         0.5513 
     57 N          20.4659  -35.3093  -38.8134 N.am      9 UNK        -0.7519 
     58 O          19.0775  -35.9908  -40.3942 O.2       9 UNK        -0.4960 
     59 C59        18.3955  -33.0473  -40.6556 C.3       10 UNK        -0.0876 
     60 S60        18.3264  -31.6111  -41.7802 S.3       10 UNK        -0.2414 
     61 C61        17.3419  -32.2955  -43.1517 C.3       10 UNK         0.0169 
     62 H62        16.7085  -24.5046  -42.2759 H         1 UNK         0.0903 
     63 H63        17.8570  -23.2609  -42.7838 H         1 UNK         0.0903 
     64 H64        16.2042  -22.8309  -42.3613 H         1 UNK         0.0903 
     65 H65        16.3568  -24.8786  -45.9616 H         1 UNK         0.3096 
     66 H66        17.5493  -26.6451  -45.5139 H         1 UNK         0.1121 
     67 H67        16.2883  -26.5925  -42.7296 H         1 UNK         0.0849 
     68 H68        17.0456  -27.9569  -43.4713 H         1 UNK         0.0849 
     69 H69        14.4540  -29.0214  -46.2611 H         1 UNK         0.0865 
     70 H70        15.6372  -27.8183  -46.6913 H         1 UNK         0.0865 
     71 H71        15.5192  -30.3917  -43.9016 H         1 UNK         0.1346 
     72 H72        19.2516  -32.1474  -45.0631 H         1 UNK         0.1412 
     73 H73        17.6190  -28.9098  -47.3438 H         1 UNK         0.1426 
     74 H74        20.2811  -31.5337  -47.1544 H         1 UNK         0.0716 
     75 H75        19.4728  -30.4454  -48.2534 H         1 UNK         0.0716 
     76 H76        21.8336  -30.5436  -44.9530 H         1 UNK         0.0695 
     77 H77        20.3400  -29.7395  -44.5361 H         1 UNK         0.0695 
     78 H78        23.1080  -28.4881  -44.6263 H         1 UNK         0.0983 
     79 H79        20.7820  -27.1375  -45.2595 H         1 UNK         0.3095 
     80 H80        20.9272  -24.1605  -43.4498 H         1 UNK         0.0454 
     81 H81        21.0679  -23.0053  -45.6361 H         1 UNK         0.0851 
     82 H82        21.6833  -24.4690  -46.4059 H         1 UNK         0.0851 
     83 H83        22.6444  -23.6349  -45.1932 H         1 UNK         0.0851 
     84 H84        19.2774  -24.7532  -45.6194 H         1 UNK         0.2976 
     85 H85        20.3048  -27.7941  -42.5223 H         1 UNK         0.3116 
     86 H86        20.8807  -29.6354  -40.4466 H         1 UNK         0.0646 
     87 H87        18.6572  -28.5576  -40.7868 H         1 UNK         0.0847 
     88 H88        19.2495  -28.3090  -39.1520 H         1 UNK         0.0847 
     89 H89        19.3340  -26.9980  -40.3186 H         1 UNK         0.0847 
     90 H90        22.1941  -26.4540  -41.1780 H         1 UNK         0.3040 
     91 H91        23.6382  -26.2684  -38.5842 H         1 UNK         0.1015 
     92 H92        23.5121  -24.3493  -40.9757 H         1 UNK         0.0786 
     93 H93        24.3604  -24.0569  -39.4636 H         1 UNK         0.0786 
     94 H94        22.6091  -24.1872  -39.4708 H         1 UNK         0.0786 
     95 H95        24.2062  -26.6173  -42.1085 H         1 UNK         0.3172 
     96 H96        27.0327  -26.5583  -41.9439 H         1 UNK         0.0595 
     97 H97        25.2359  -27.6211  -44.1818 H         1 UNK         0.0839 
     98 H98        26.9340  -27.2015  -44.3384 H         1 UNK         0.0839 
     99 H99        25.7553  -25.9492  -43.9816 H         1 UNK         0.0839 
    100 H100       24.7991  -29.3641  -42.0437 H         1 UNK         0.2998 
    101 H101       27.1123  -31.2160  -41.5895 H         1 UNK         0.0822 
    102 H102       26.0376  -32.7701  -43.2206 H         1 UNK         0.0787 
    103 H103       24.8021  -31.5689  -43.5751 H         1 UNK         0.0787 
    104 H104       26.4867  -31.2595  -43.9973 H         1 UNK         0.0787 
    105 H105       23.7480  -30.4601  -41.0199 H         1 UNK         0.3055 
    106 H106       22.3674  -30.9365  -39.3530 H         1 UNK         0.1106 
    107 H107       24.1982  -31.6250  -37.7700 H         1 UNK         0.0828 
    108 H108       22.7043  -32.5215  -37.5574 H         1 UNK         0.0828 
    109 H109       24.0592  -33.2791  -38.3705 H         1 UNK         0.0828 
    110 H110       20.4637  -32.0892  -39.4058 H         1 UNK         0.2931 
    111 H111       20.0881  -33.9060  -41.6487 H         1 UNK         0.0412 
    112 H112       21.0359  -34.5820  -38.4138 H         1 UNK         0.3472 
    113 H113       20.4285  -36.2179  -38.3780 H         1 UNK         0.3472 
    114 H114       17.6409  -33.7720  -40.9681 H         1 UNK         0.0970 
    115 H115       18.0961  -32.7226  -39.6576 H         1 UNK         0.0970 
    116 H116       17.7339  -33.2755  -43.4291 H         1 UNK         0.0612 
    117 H117       16.3146  -32.4515  -42.8190 H         1 UNK         0.0612 
@<TRIPOS>BOND
     1    1    2 1    
     2    1   62 1    
     3    1   63 1    
     4    1   64 1    
     5    2    3 2    
     6    2    4 am   BACKBONE|DICT|INTERRES
     7    4    5 1    
     8    4   65 1    
     9    5    6 1    
    10    5   25 1    
    11    5   66 1    
    12    6    7 1    
    13    6   67 1    
    14    6   68 1    
    15    7    8 1    
    16    8    9 1    
    17    8   69 1    
    18    8   70 1    
    19    9   10 ar   
    20    9   14 ar   
    21   10   11 ar   
    22   10   71 1    
    23   11   12 ar   
    24   11   61 1    
    25   12   13 ar   
    26   12   72 1    
    27   13   14 ar   
    28   13   15 1    
    29   14   73 1    
    30   15   16 1    
    31   15   74 1    
    32   15   75 1    
    33   16   17 1    
    34   17   18 1    
    35   17   76 1    
    36   17   77 1    
    37   18   19 1    
    38   18   27 1    
    39   18   78 1    
    40   19   20 am   BACKBONE|DICT|INTERRES
    41   19   79 1    
    42   20   21 2    
    43   20   22 1    
    44   22   23 1    
    45   22   24 1    
    46   22   80 1    
    47   23   81 1    
    48   23   82 1    
    49   23   83 1    
    50   24   25 am   BACKBONE|DICT|INTERRES
    51   24   84 1    
    52   25   26 2    
    53   27   28 2    
    54   27   29 am   BACKBONE|DICT|INTERRES
    55   29   30 1    
    56   29   85 1    
    57   30   31 1    
    58   30   32 1    
    59   30   86 1    
    60   31   87 1    
    61   31   88 1    
    62   31   89 1    
    63   32   33 2    
    64   32   34 am   BACKBONE|DICT|INTERRES
    65   34   35 1    
    66   34   90 1    
    67   35   36 1    
    68   35   37 1    
    69   35   91 1    
    70   36   92 1    
    71   36   93 1    
    72   36   94 1    
    73   37   38 2    
    74   37   39 am   BACKBONE|DICT|INTERRES
    75   39   40 1    
    76   39   95 1    
    77   40   41 1    
    78   40   42 1    
    79   40   96 1    
    80   41   97 1    
    81   41   98 1    
    82   41   99 1    
    83   42   43 2    
    84   42   44 am   BACKBONE|DICT|INTERRES
    85   44   45 1    
    86   44  100 1    
    87   45   46 1    
    88   45   47 1    
    89   45  101 1    
    90   46  102 1    
    91   46  103 1    
    92   46  104 1    
    93   47   48 2    
    94   47   49 am   BACKBONE|DICT|INTERRES
    95   49   50 1    
    96   49  105 1    
    97   50   51 1    
    98   50   52 1    
    99   50  106 1    
   100   51  107 1    
   101   51  108 1    
   102   51  109 1    
   103   52   53 2    
   104   52   54 am   BACKBONE|DICT|INTERRES
   105   54   55 1    
   106   54  110 1    
   107   55   56 1    
   108   55   59 1    
   109   55  111 1    
   110   56   57 am   BACKBONE|DICT|INTERRES
   111   56   58 2    
   112   57  112 1    
   113   57  113 1    
   114   59   60 1    
   115   59  114 1    
   116   59  115 1    
   117   60   61 1    
   118   61  116 1    
   119   61  117 1    
@<TRIPOS>SUBSTRUCTURE
     1 UNK         1 GROUP             0       ****    0 ROOT    
