@<TRIPOS>MOLECULE
3R8
117   119    1
SMALL
USER_CHARGES


@<TRIPOS>ATOM
      1 CA         16.1743  -21.9142  -42.8155 C.3       0 UNK        -0.2013 
      2 C          16.4183  -22.7101  -44.0886 C.2       0 UNK         0.4866 
      3 O          16.6706  -22.1225  -45.1403 O.2       0 UNK        -0.5176 
      4 N          16.3536  -24.0451  -44.0017 N.am      1 UNK        -0.4884 
      5 CA         16.5493  -24.9776  -45.1217 C.3       1 UNK         0.0853 
      6 C6         15.7009  -26.2609  -44.9493 C.3       10 UNK        -0.0849 
      7 S7         16.0149  -27.1766  -43.3992 S.3       10 UNK        -0.2776 
      8 C8         15.1056  -28.7206  -43.7358 C.3       10 UNK         0.0316 
      9 C9         16.0422  -29.8525  -44.1345 C.ar      10 UNK        -0.0863 
     10 C10        16.2481  -30.9302  -43.2671 C.ar      10 UNK        -0.1009 
     11 C11        17.1139  -31.9707  -43.6167 C.ar      10 UNK        -0.0712 
     12 C12        17.7806  -31.9256  -44.8444 C.ar      10 UNK        -0.0894 
     13 C13        17.6096  -30.8375  -45.7046 C.ar      10 UNK        -0.0745 
     14 C14        16.7162  -29.8205  -45.3593 C.ar      10 UNK        -0.0972 
     15 C15        18.4608  -30.7159  -46.9614 C.3       10 UNK         0.0209 
     16 S16        19.6575  -29.3358  -46.8553 S.3       10 UNK        -0.2568 
     17 C17        20.3467  -29.5395  -45.1745 C.3       10 UNK        -0.0983 
     18 CA         21.2567  -28.3742  -44.7193 C.3       3 UNK         0.0876 
     19 N          20.6217  -27.0543  -44.8848 N.am      3 UNK        -0.4424 
     20 C          21.1946  -25.8788  -44.5894 C.2       2 UNK         0.4918 
     21 O          22.3127  -25.7826  -44.0853 O.2       2 UNK        -0.4875 
     22 CA         20.4156  -24.5813  -44.8672 C.3       2 UNK         0.0481 
     23 CB         20.7920  -24.0058  -46.2460 C.3       2 UNK        -0.1831 
     24 N          18.9578  -24.6432  -44.6901 N.am      2 UNK        -0.4498 
     25 C          18.0362  -25.2737  -45.4333 C.2       1 UNK         0.5027 
     26 O          18.3185  -26.0500  -46.3460 O.2       1 UNK        -0.4969 
     27 C          21.7193  -28.6367  -43.2703 C.2       3 UNK         0.5005 
     28 O          22.7892  -29.2075  -43.0572 O.2       3 UNK        -0.5279 
     29 N          20.9152  -28.1781  -42.2993 N.am      4 UNK        -0.4463 
     30 CA         21.1596  -28.2933  -40.8602 C.3       4 UNK         0.0283 
     31 CB         19.9412  -27.7494  -40.0987 C.3       4 UNK        -0.1875 
     32 C          22.4493  -27.6071  -40.3735 C.2       4 UNK         0.4949 
     33 O          22.9810  -28.0140  -39.3410 O.2       4 UNK        -0.5039 
     34 N          22.9606  -26.6191  -41.1257 N.am      5 UNK        -0.4663 
     35 CA         24.2196  -25.9225  -40.8357 C.3       5 UNK         0.0242 
     36 CB         24.3463  -24.6872  -41.7413 C.3       5 UNK        -0.1982 
     37 C          25.4657  -26.8184  -40.9677 C.2       5 UNK         0.5017 
     38 O          26.4979  -26.4932  -40.3805 O.2       5 UNK        -0.5012 
     39 N          25.3489  -27.9369  -41.6999 N.am      6 UNK        -0.4439 
     40 CA         26.3780  -28.9758  -41.7974 C.3       6 UNK         0.0297 
     41 CB         26.1527  -29.7798  -43.0889 C.3       6 UNK        -0.2006 
     42 C          26.4155  -29.9150  -40.5727 C.2       6 UNK         0.4892 
     43 O          27.3433  -30.7201  -40.4848 O.2       6 UNK        -0.5089 
     44 N          25.4246  -29.7914  -39.6720 N.am      7 UNK        -0.4243 
     45 CA         25.1065  -30.6272  -38.5083 C.3       7 UNK         0.0196 
     46 CB         26.3139  -30.8359  -37.5728 C.3       7 UNK        -0.2007 
     47 C          24.4704  -31.9620  -38.9270 C.2       7 UNK         0.5020 
     48 O          24.9745  -32.6374  -39.8255 O.2       7 UNK        -0.5147 
     49 N          23.3534  -32.3127  -38.2710 N.am      8 UNK        -0.4734 
     50 CA         22.5485  -33.5283  -38.4868 C.3       8 UNK         0.0238 
     51 CB         23.2985  -34.7661  -37.9487 C.3       8 UNK        -0.1912 
     52 C          22.0777  -33.7078  -39.9475 C.2       8 UNK         0.5038 
     53 O          22.0321  -34.8347  -40.4444 O.2       8 UNK        -0.5046 
     54 N          21.7656  -32.5819  -40.6051 N.am      9 UNK        -0.4200 
     55 CA         21.4233  -32.4628  -42.0335 C.3       9 UNK         0.0839 
     56 C          22.6109  -32.7281  -43.0112 C.2       9 UNK         0.5513 
     57 N          23.8525  -32.8448  -42.5542 N.am      9 UNK        -0.7519 
     58 O          22.4068  -32.8079  -44.2197 O.2       9 UNK        -0.4960 
     59 C59        20.1467  -33.2580  -42.4338 C.3       10 UNK        -0.0876 
     60 S60        18.6690  -32.7895  -41.4689 S.3       10 UNK        -0.2414 
     61 C61        17.3323  -33.1331  -42.6587 C.3       10 UNK         0.0169 
     62 H62        15.9710  -22.5610  -41.9621 H         1 UNK         0.0903 
     63 H63        17.0469  -21.3055  -42.5797 H         1 UNK         0.0903 
     64 H64        15.3209  -21.2495  -42.9472 H         1 UNK         0.0903 
     65 H65        16.1448  -24.4832  -43.1141 H         1 UNK         0.3096 
     66 H66        16.1761  -24.4881  -46.0247 H         1 UNK         0.1121 
     67 H67        15.8350  -26.9203  -45.8068 H         1 UNK         0.0849 
     68 H68        14.6438  -25.9903  -44.9608 H         1 UNK         0.0849 
     69 H69        14.5443  -28.9896  -42.8396 H         1 UNK         0.0865 
     70 H70        14.3611  -28.5662  -44.5182 H         1 UNK         0.0865 
     71 H71        15.7400  -30.9591  -42.3126 H         1 UNK         0.1346 
     72 H72        18.4608  -32.7193  -45.1183 H         1 UNK         0.1412 
     73 H73        16.5923  -28.9813  -46.0275 H         1 UNK         0.1426 
     74 H74        19.0097  -31.6405  -47.1468 H         1 UNK         0.0716 
     75 H75        17.8141  -30.5626  -47.8263 H         1 UNK         0.0716 
     76 H76        20.8908  -30.4859  -45.1447 H         1 UNK         0.0695 
     77 H77        19.5228  -29.6369  -44.4666 H         1 UNK         0.0695 
     78 H78        22.1510  -28.3762  -45.3459 H         1 UNK         0.0983 
     79 H79        19.7251  -27.0371  -45.3616 H         1 UNK         0.3095 
     80 H80        20.7555  -23.8625  -44.1198 H         1 UNK         0.0454 
     81 H81        20.3140  -23.0414  -46.4177 H         1 UNK         0.0851 
     82 H82        20.5058  -24.6726  -47.0598 H         1 UNK         0.0851 
     83 H83        21.8691  -23.8505  -46.3213 H         1 UNK         0.0851 
     84 H84        18.5964  -24.0647  -43.9445 H         1 UNK         0.2976 
     85 H85        20.0637  -27.7115  -42.5777 H         1 UNK         0.3116 
     86 H86        21.2566  -29.3562  -40.6314 H         1 UNK         0.0646 
     87 H87        19.0334  -28.2951  -40.3580 H         1 UNK         0.0847 
     88 H88        20.0782  -27.8481  -39.0208 H         1 UNK         0.0847 
     89 H89        19.7714  -26.6927  -40.3095 H         1 UNK         0.0847 
     90 H90        22.4974  -26.3708  -41.9924 H         1 UNK         0.3040 
     91 H91        24.1774  -25.5812  -39.7987 H         1 UNK         0.1015 
     92 H92        24.4640  -24.9656  -42.7891 H         1 UNK         0.0786 
     93 H93        25.2180  -24.0918  -41.4661 H         1 UNK         0.0786 
     94 H94        23.4730  -24.0398  -41.6603 H         1 UNK         0.0786 
     95 H95        24.4604  -28.1382  -42.1479 H         1 UNK         0.3172 
     96 H96        27.3551  -28.4935  -41.8683 H         1 UNK         0.0595 
     97 H97        25.2080  -30.3238  -43.0643 H         1 UNK         0.0839 
     98 H98        26.9451  -30.5151  -43.2347 H         1 UNK         0.0839 
     99 H99        26.1454  -29.1332  -43.9663 H         1 UNK         0.0839 
    100 H100       24.7302  -29.0763  -39.8561 H         1 UNK         0.2998 
    101 H101       24.3605  -30.0585  -37.9505 H         1 UNK         0.0822 
    102 H102       26.0022  -31.3096  -36.6412 H         1 UNK         0.0787 
    103 H103       27.0718  -31.4801  -38.0193 H         1 UNK         0.0787 
    104 H104       26.7859  -29.8880  -37.3143 H         1 UNK         0.0787 
    105 H105       23.0096  -31.6896  -37.5519 H         1 UNK         0.3055 
    106 H106       21.6391  -33.4115  -37.8947 H         1 UNK         0.1106 
    107 H107       22.6682  -35.6555  -37.9879 H         1 UNK         0.0828 
    108 H108       24.1964  -34.9781  -38.5303 H         1 UNK         0.0828 
    109 H109       23.5968  -34.6294  -36.9094 H         1 UNK         0.0828 
    110 H110       21.8541  -31.7101  -40.1063 H         1 UNK         0.2931 
    111 H111       21.1900  -31.4077  -42.1751 H         1 UNK         0.0412 
    112 H112       24.0655  -32.7852  -41.5636 H         1 UNK         0.3472 
    113 H113       24.5967  -33.0101  -43.2117 H         1 UNK         0.3472 
    114 H114       20.3062  -34.3319  -42.3298 H         1 UNK         0.0970 
    115 H115       19.9336  -33.0952  -43.4885 H         1 UNK         0.0970 
    116 H116       16.4135  -33.3257  -42.1028 H         1 UNK         0.0612 
    117 H117       17.5508  -34.0503  -43.2080 H         1 UNK         0.0612 
@<TRIPOS>BOND
     1    1    2 1    
     2    1   62 1    
     3    1   63 1    
     4    1   64 1    
     5    2    3 2    
     6    2    4 am   BACKBONE|DICT|INTERRES
     7    4    5 1    
     8    4   65 1    
     9    5    6 1    
    10    5   25 1    
    11    5   66 1    
    12    6    7 1    
    13    6   67 1    
    14    6   68 1    
    15    7    8 1    
    16    8    9 1    
    17    8   69 1    
    18    8   70 1    
    19    9   10 ar   
    20    9   14 ar   
    21   10   11 ar   
    22   10   71 1    
    23   11   12 ar   
    24   11   61 1    
    25   12   13 ar   
    26   12   72 1    
    27   13   14 ar   
    28   13   15 1    
    29   14   73 1    
    30   15   16 1    
    31   15   74 1    
    32   15   75 1    
    33   16   17 1    
    34   17   18 1    
    35   17   76 1    
    36   17   77 1    
    37   18   19 1    
    38   18   27 1    
    39   18   78 1    
    40   19   20 am   BACKBONE|DICT|INTERRES
    41   19   79 1    
    42   20   21 2    
    43   20   22 1    
    44   22   23 1    
    45   22   24 1    
    46   22   80 1    
    47   23   81 1    
    48   23   82 1    
    49   23   83 1    
    50   24   25 am   BACKBONE|DICT|INTERRES
    51   24   84 1    
    52   25   26 2    
    53   27   28 2    
    54   27   29 am   BACKBONE|DICT|INTERRES
    55   29   30 1    
    56   29   85 1    
    57   30   31 1    
    58   30   32 1    
    59   30   86 1    
    60   31   87 1    
    61   31   88 1    
    62   31   89 1    
    63   32   33 2    
    64   32   34 am   BACKBONE|DICT|INTERRES
    65   34   35 1    
    66   34   90 1    
    67   35   36 1    
    68   35   37 1    
    69   35   91 1    
    70   36   92 1    
    71   36   93 1    
    72   36   94 1    
    73   37   38 2    
    74   37   39 am   BACKBONE|DICT|INTERRES
    75   39   40 1    
    76   39   95 1    
    77   40   41 1    
    78   40   42 1    
    79   40   96 1    
    80   41   97 1    
    81   41   98 1    
    82   41   99 1    
    83   42   43 2    
    84   42   44 am   BACKBONE|DICT|INTERRES
    85   44   45 1    
    86   44  100 1    
    87   45   46 1    
    88   45   47 1    
    89   45  101 1    
    90   46  102 1    
    91   46  103 1    
    92   46  104 1    
    93   47   48 2    
    94   47   49 am   BACKBONE|DICT|INTERRES
    95   49   50 1    
    96   49  105 1    
    97   50   51 1    
    98   50   52 1    
    99   50  106 1    
   100   51  107 1    
   101   51  108 1    
   102   51  109 1    
   103   52   53 2    
   104   52   54 am   BACKBONE|DICT|INTERRES
   105   54   55 1    
   106   54  110 1    
   107   55   56 1    
   108   55   59 1    
   109   55  111 1    
   110   56   57 am   BACKBONE|DICT|INTERRES
   111   56   58 2    
   112   57  112 1    
   113   57  113 1    
   114   59   60 1    
   115   59  114 1    
   116   59  115 1    
   117   60   61 1    
   118   61  116 1    
   119   61  117 1    
@<TRIPOS>SUBSTRUCTURE
     1 UNK         1 GROUP             0       ****    0 ROOT    
