@<TRIPOS>MOLECULE
3R8
117   119    1
SMALL
USER_CHARGES


@<TRIPOS>ATOM
      1 CA         18.8048  -27.2616  -42.3569 C.3       0 UNK        -0.2013 
      2 C          17.9496  -26.1828  -42.9953 C.2       0 UNK         0.4866 
      3 O          18.0405  -25.0203  -42.6024 O.2       0 UNK        -0.5176 
      4 N          17.1242  -26.5571  -43.9820 N.am      1 UNK        -0.4884 
      5 CA         16.2311  -25.6500  -44.7189 C.3       1 UNK         0.0853 
      6 C6         15.2237  -26.4202  -45.6051 C.3       10 UNK        -0.0849 
      7 S7         14.1990  -27.5778  -44.6352 S.3       10 UNK        -0.2776 
      8 C8         14.6384  -29.1867  -45.3685 C.3       10 UNK         0.0316 
      9 C9         16.0305  -29.6630  -44.9702 C.ar      10 UNK        -0.0863 
     10 C10        16.2606  -30.1548  -43.6804 C.ar      10 UNK        -0.1009 
     11 C11        17.5094  -30.6788  -43.3305 C.ar      10 UNK        -0.0712 
     12 C12        18.5329  -30.7025  -44.2836 C.ar      10 UNK        -0.0894 
     13 C13        18.3230  -30.2003  -45.5697 C.ar      10 UNK        -0.0745 
     14 C14        17.0695  -29.6792  -45.9076 C.ar      10 UNK        -0.0972 
     15 C15        19.4333  -30.2797  -46.6088 C.3       10 UNK         0.0209 
     16 S16        20.1288  -28.6499  -47.0157 S.3       10 UNK        -0.2568 
     17 C17        21.0804  -28.2471  -45.5108 C.3       10 UNK        -0.0983 
     18 CA         21.7263  -26.8352  -45.5772 C.3       3 UNK         0.0876 
     19 N          20.7173  -25.7894  -45.7370 N.am      3 UNK        -0.4424 
     20 C          20.4328  -25.1361  -46.8703 C.2       2 UNK         0.4918 
     21 O          21.0947  -25.2293  -47.9052 O.2       2 UNK        -0.4875 
     22 CA         19.1397  -24.3043  -46.8502 C.3       2 UNK         0.0481 
     23 CB         18.6551  -23.8972  -48.2566 C.3       2 UNK        -0.1831 
     24 N          18.1172  -25.0874  -46.1592 N.am      2 UNK        -0.4498 
     25 C          17.0179  -24.6217  -45.5579 C.2       1 UNK         0.5027 
     26 O          16.6408  -23.4504  -45.6127 O.2       1 UNK        -0.4969 
     27 C          22.5286  -26.5377  -44.2995 C.2       3 UNK         0.5005 
     28 O          22.0413  -25.8222  -43.4183 O.2       3 UNK        -0.5279 
     29 N          23.7404  -27.1000  -44.2109 N.am      4 UNK        -0.4463 
     30 CA         24.6497  -26.9592  -43.0725 C.3       4 UNK         0.0283 
     31 CB         26.0822  -27.2884  -43.5328 C.3       4 UNK        -0.1875 
     32 C          24.2077  -27.8439  -41.8946 C.2       4 UNK         0.4949 
     33 O          24.7673  -28.9226  -41.6947 O.2       4 UNK        -0.5039 
     34 N          23.1930  -27.3911  -41.1486 N.am      5 UNK        -0.4663 
     35 CA         22.6632  -28.0625  -39.9572 C.3       5 UNK         0.0242 
     36 CB         21.5158  -27.2280  -39.3671 C.3       5 UNK        -0.1982 
     37 C          23.7494  -28.3110  -38.8927 C.2       5 UNK         0.5017 
     38 O          24.5596  -27.4177  -38.6385 O.2       5 UNK        -0.5012 
     39 N          23.7330  -29.5206  -38.3192 N.am      6 UNK        -0.4439 
     40 CA         24.6903  -30.1378  -37.3897 C.3       6 UNK         0.0297 
     41 CB         25.3046  -29.1663  -36.3609 C.3       6 UNK        -0.2006 
     42 C          25.7563  -30.9773  -38.1132 C.2       6 UNK         0.4892 
     43 O          26.2609  -31.9266  -37.5120 O.2       6 UNK        -0.5089 
     44 N          26.0400  -30.6724  -39.3882 N.am      7 UNK        -0.4243 
     45 CA         26.6892  -31.6029  -40.3154 C.3       7 UNK         0.0196 
     46 CB         27.5813  -30.8409  -41.3108 C.3       7 UNK        -0.2007 
     47 C          25.5948  -32.4131  -41.0262 C.2       7 UNK         0.5020 
     48 O          25.6180  -33.6434  -40.9885 O.2       7 UNK        -0.5147 
     49 N          24.6185  -31.6990  -41.5997 N.am      8 UNK        -0.4734 
     50 CA         23.3288  -32.2284  -42.0354 C.3       8 UNK         0.0238 
     51 CB         22.7843  -31.3273  -43.1596 C.3       8 UNK        -0.1912 
     52 C          22.3407  -32.2638  -40.8555 C.2       8 UNK         0.5038 
     53 O          22.5808  -31.6328  -39.8215 O.2       8 UNK        -0.5046 
     54 N          21.2201  -32.9654  -41.0574 N.am      9 UNK        -0.4200 
     55 CA         20.0853  -33.0734  -40.1203 C.3       9 UNK         0.0839 
     56 C          20.3506  -33.9681  -38.8720 C.2       9 UNK         0.5513 
     57 N          21.4318  -34.7369  -38.8236 N.am      9 UNK        -0.7519 
     58 O          19.5466  -33.9924  -37.9435 O.2       9 UNK        -0.4960 
     59 C59        19.4409  -31.7044  -39.7331 C.3       10 UNK        -0.0876 
     60 S60        19.2023  -30.5538  -41.1297 S.3       10 UNK        -0.2414 
     61 C61        17.7404  -31.2695  -41.9448 C.3       10 UNK         0.0169 
     62 H62        18.7500  -28.1950  -42.9122 H         1 UNK         0.0903 
     63 H63        19.8477  -26.9503  -42.3281 H         1 UNK         0.0903 
     64 H64        18.4734  -27.4512  -41.3365 H         1 UNK         0.0903 
     65 H65        17.0505  -27.5359  -44.2288 H         1 UNK         0.3096 
     66 H66        15.6628  -25.0821  -43.9784 H         1 UNK         0.1121 
     67 H67        15.7410  -26.9596  -46.4006 H         1 UNK         0.0849 
     68 H68        14.5485  -25.7224  -46.1047 H         1 UNK         0.0849 
     69 H69        13.9067  -29.9270  -45.0416 H         1 UNK         0.0865 
     70 H70        14.5391  -29.1317  -46.4539 H         1 UNK         0.0865 
     71 H71        15.4553  -30.1528  -42.9581 H         1 UNK         0.1346 
     72 H72        19.4935  -31.1235  -44.0217 H         1 UNK         0.1412 
     73 H73        16.8992  -29.3145  -46.9117 H         1 UNK         0.1426 
     74 H74        19.0331  -30.7249  -47.5207 H         1 UNK         0.0716 
     75 H75        20.2361  -30.9400  -46.2765 H         1 UNK         0.0716 
     76 H76        21.8448  -29.0155  -45.3810 H         1 UNK         0.0695 
     77 H77        20.4158  -28.3262  -44.6496 H         1 UNK         0.0695 
     78 H78        22.4250  -26.8027  -46.4164 H         1 UNK         0.0983 
     79 H79        20.2188  -25.5525  -44.8904 H         1 UNK         0.3095 
     80 H80        19.3460  -23.4014  -46.2721 H         1 UNK         0.0454 
     81 H81        17.7504  -23.2914  -48.2091 H         1 UNK         0.0851 
     82 H82        18.4421  -24.7702  -48.8745 H         1 UNK         0.0851 
     83 H83        19.4105  -23.3050  -48.7744 H         1 UNK         0.0851 
     84 H84        18.3305  -26.0709  -46.0557 H         1 UNK         0.2976 
     85 H85        24.0557  -27.6998  -44.9601 H         1 UNK         0.3116 
     86 H86        24.6401  -25.9206  -42.7341 H         1 UNK         0.0646 
     87 H87        26.1626  -28.3049  -43.9205 H         1 UNK         0.0847 
     88 H88        26.7862  -27.2017  -42.7040 H         1 UNK         0.0847 
     89 H89        26.4164  -26.6041  -44.3127 H         1 UNK         0.0847 
     90 H90        22.7537  -26.5220  -41.4266 H         1 UNK         0.3040 
     91 H91        22.2568  -29.0218  -40.2844 H         1 UNK         0.1015 
     92 H92        21.8562  -26.2401  -39.0539 H         1 UNK         0.0786 
     93 H93        21.0870  -27.7189  -38.4923 H         1 UNK         0.0786 
     94 H94        20.7094  -27.0933  -40.0861 H         1 UNK         0.0786 
     95 H95        23.0707  -30.1946  -38.7033 H         1 UNK         0.3172 
     96 H96        24.0894  -30.8507  -36.8229 H         1 UNK         0.0595 
     97 H97        26.0261  -28.4887  -36.8182 H         1 UNK         0.0839 
     98 H98        25.8365  -29.7169  -35.5842 H         1 UNK         0.0839 
     99 H99        24.5390  -28.5674  -35.8678 H         1 UNK         0.0839 
    100 H100       25.5722  -29.8783  -39.8071 H         1 UNK         0.2998 
    101 H101       27.3258  -32.3002  -39.7664 H         1 UNK         0.0822 
    102 H102       28.3539  -30.2738  -40.7916 H         1 UNK         0.0787 
    103 H103       28.0860  -31.5343  -41.9846 H         1 UNK         0.0787 
    104 H104       27.0173  -30.1438  -41.9293 H         1 UNK         0.0787 
    105 H105       24.6913  -30.6823  -41.5851 H         1 UNK         0.3055 
    106 H106       23.4628  -33.2427  -42.4179 H         1 UNK         0.1106 
    107 H107       21.8736  -31.7425  -43.5918 H         1 UNK         0.0828 
    108 H108       22.5430  -30.3275  -42.7959 H         1 UNK         0.0828 
    109 H109       23.5058  -31.2224  -43.9701 H         1 UNK         0.0828 
    110 H110       21.1055  -33.4597  -41.9299 H         1 UNK         0.2931 
    111 H111       19.3302  -33.6249  -40.6804 H         1 UNK         0.0412 
    112 H112       22.0984  -34.7306  -39.5787 H         1 UNK         0.3472 
    113 H113       21.5875  -35.3202  -38.0163 H         1 UNK         0.3472 
    114 H114       20.0619  -31.1941  -38.9949 H         1 UNK         0.0970 
    115 H115       18.4760  -31.8623  -39.2479 H         1 UNK         0.0970 
    116 H116       16.8708  -31.1173  -41.3038 H         1 UNK         0.0612 
    117 H117       17.8697  -32.3469  -42.0497 H         1 UNK         0.0612 
@<TRIPOS>BOND
     1    1    2 1    
     2    1   62 1    
     3    1   63 1    
     4    1   64 1    
     5    2    3 2    
     6    2    4 am   BACKBONE|DICT|INTERRES
     7    4    5 1    
     8    4   65 1    
     9    5    6 1    
    10    5   25 1    
    11    5   66 1    
    12    6    7 1    
    13    6   67 1    
    14    6   68 1    
    15    7    8 1    
    16    8    9 1    
    17    8   69 1    
    18    8   70 1    
    19    9   10 ar   
    20    9   14 ar   
    21   10   11 ar   
    22   10   71 1    
    23   11   12 ar   
    24   11   61 1    
    25   12   13 ar   
    26   12   72 1    
    27   13   14 ar   
    28   13   15 1    
    29   14   73 1    
    30   15   16 1    
    31   15   74 1    
    32   15   75 1    
    33   16   17 1    
    34   17   18 1    
    35   17   76 1    
    36   17   77 1    
    37   18   19 1    
    38   18   27 1    
    39   18   78 1    
    40   19   20 am   BACKBONE|DICT|INTERRES
    41   19   79 1    
    42   20   21 2    
    43   20   22 1    
    44   22   23 1    
    45   22   24 1    
    46   22   80 1    
    47   23   81 1    
    48   23   82 1    
    49   23   83 1    
    50   24   25 am   BACKBONE|DICT|INTERRES
    51   24   84 1    
    52   25   26 2    
    53   27   28 2    
    54   27   29 am   BACKBONE|DICT|INTERRES
    55   29   30 1    
    56   29   85 1    
    57   30   31 1    
    58   30   32 1    
    59   30   86 1    
    60   31   87 1    
    61   31   88 1    
    62   31   89 1    
    63   32   33 2    
    64   32   34 am   BACKBONE|DICT|INTERRES
    65   34   35 1    
    66   34   90 1    
    67   35   36 1    
    68   35   37 1    
    69   35   91 1    
    70   36   92 1    
    71   36   93 1    
    72   36   94 1    
    73   37   38 2    
    74   37   39 am   BACKBONE|DICT|INTERRES
    75   39   40 1    
    76   39   95 1    
    77   40   41 1    
    78   40   42 1    
    79   40   96 1    
    80   41   97 1    
    81   41   98 1    
    82   41   99 1    
    83   42   43 2    
    84   42   44 am   BACKBONE|DICT|INTERRES
    85   44   45 1    
    86   44  100 1    
    87   45   46 1    
    88   45   47 1    
    89   45  101 1    
    90   46  102 1    
    91   46  103 1    
    92   46  104 1    
    93   47   48 2    
    94   47   49 am   BACKBONE|DICT|INTERRES
    95   49   50 1    
    96   49  105 1    
    97   50   51 1    
    98   50   52 1    
    99   50  106 1    
   100   51  107 1    
   101   51  108 1    
   102   51  109 1    
   103   52   53 2    
   104   52   54 am   BACKBONE|DICT|INTERRES
   105   54   55 1    
   106   54  110 1    
   107   55   56 1    
   108   55   59 1    
   109   55  111 1    
   110   56   57 am   BACKBONE|DICT|INTERRES
   111   56   58 2    
   112   57  112 1    
   113   57  113 1    
   114   59   60 1    
   115   59  114 1    
   116   59  115 1    
   117   60   61 1    
   118   61  116 1    
   119   61  117 1    
@<TRIPOS>SUBSTRUCTURE
     1 UNK         1 GROUP             0       ****    0 ROOT    
