@<TRIPOS>MOLECULE
3R8
117   119    1
SMALL
USER_CHARGES


@<TRIPOS>ATOM
      1 CA         23.8799  -28.3873  -47.5246 C.3       0 UNK        -0.2013 
      2 C          22.5817  -28.0694  -46.8000 C.2       0 UNK         0.4866 
      3 O          22.5987  -27.8103  -45.5973 O.2       0 UNK        -0.5176 
      4 N          21.4514  -28.0681  -47.5176 N.am      1 UNK        -0.4884 
      5 CA         20.0927  -27.8524  -46.9948 C.3       1 UNK         0.0853 
      6 C6         19.0233  -28.4703  -47.9314 C.3       10 UNK        -0.0849 
      7 S7         19.1272  -30.2929  -47.9413 S.3       10 UNK        -0.2776 
      8 C8         17.5238  -30.7727  -47.2170 C.3       10 UNK         0.0316 
      9 C9         17.4076  -30.4231  -45.7372 C.ar      10 UNK        -0.0863 
     10 C10        17.9361  -31.2803  -44.7663 C.ar      10 UNK        -0.1009 
     11 C11        17.7760  -31.0025  -43.4016 C.ar      10 UNK        -0.0712 
     12 C12        17.0793  -29.8521  -43.0180 C.ar      10 UNK        -0.0894 
     13 C13        16.5386  -28.9924  -43.9770 C.ar      10 UNK        -0.0745 
     14 C14        16.7109  -29.2797  -45.3340 C.ar      10 UNK        -0.0972 
     15 C15        15.7114  -27.7877  -43.5541 C.3       10 UNK         0.0209 
     16 S16        16.6496  -26.2378  -43.6887 S.3       10 UNK        -0.2568 
     17 C17        17.5859  -26.1883  -42.1181 C.3       10 UNK        -0.0983 
     18 CA         19.0715  -26.6475  -42.2357 C.3       3 UNK         0.0876 
     19 N          19.7819  -26.0751  -43.3844 N.am      3 UNK        -0.4424 
     20 C          19.8862  -24.7870  -43.7496 C.2       2 UNK         0.4918 
     21 O          19.4769  -23.8366  -43.0817 O.2       2 UNK        -0.4875 
     22 CA         20.5132  -24.5127  -45.1350 C.3       2 UNK         0.0481 
     23 CB         21.8405  -23.7470  -45.0180 C.3       2 UNK        -0.1831 
     24 N          20.7271  -25.7521  -45.8889 N.am      2 UNK        -0.4498 
     25 C          19.8041  -26.3733  -46.6354 C.2       1 UNK         0.5027 
     26 O          18.7547  -25.8377  -46.9957 O.2       1 UNK        -0.4969 
     27 C          19.8404  -26.4638  -40.9072 C.2       3 UNK         0.5005 
     28 O          20.8817  -25.8011  -40.8639 O.2       3 UNK        -0.5279 
     29 N          19.2981  -27.0649  -39.8357 N.am      4 UNK        -0.4463 
     30 CA         19.7752  -27.0199  -38.4495 C.3       4 UNK         0.0283 
     31 CB         19.5611  -25.6114  -37.8480 C.3       4 UNK        -0.1875 
     32 C          21.2157  -27.5471  -38.3119 C.2       4 UNK         0.4949 
     33 O          21.4170  -28.7610  -38.3495 O.2       4 UNK        -0.5039 
     34 N          22.1814  -26.6349  -38.1456 N.am      5 UNK        -0.4663 
     35 CA         23.6072  -26.9400  -38.0243 C.3       5 UNK         0.0242 
     36 CB         24.3160  -25.7445  -37.3659 C.3       5 UNK        -0.1982 
     37 C          24.2792  -27.2944  -39.3633 C.2       5 UNK         0.5017 
     38 O          25.3624  -27.8809  -39.3393 O.2       5 UNK        -0.5012 
     39 N          23.6624  -26.9232  -40.4946 N.am      6 UNK        -0.4439 
     40 CA         24.1445  -27.2659  -41.8322 C.3       6 UNK         0.0297 
     41 CB         23.6499  -26.2177  -42.8357 C.3       6 UNK        -0.2006 
     42 C          23.6682  -28.6727  -42.2254 C.2       6 UNK         0.4892 
     43 O          22.5359  -29.0411  -41.9037 O.2       6 UNK        -0.5089 
     44 N          24.5507  -29.4055  -42.9222 N.am      7 UNK        -0.4243 
     45 CA         24.4601  -30.8252  -43.2953 C.3       7 UNK         0.0196 
     46 CB         23.1915  -31.1179  -44.1277 C.3       7 UNK        -0.2007 
     47 C          24.5763  -31.7675  -42.0813 C.2       7 UNK         0.5020 
     48 O          24.5875  -31.3247  -40.9311 O.2       7 UNK        -0.5147 
     49 N          24.6651  -33.0763  -42.3561 N.am      8 UNK        -0.4734 
     50 CA         24.7536  -34.1317  -41.3363 C.3       8 UNK         0.0238 
     51 CB         25.0507  -35.4763  -42.0203 C.3       8 UNK        -0.1912 
     52 C          23.4968  -34.2421  -40.4522 C.2       8 UNK         0.5038 
     53 O          23.5974  -34.6922  -39.3102 O.2       8 UNK        -0.5046 
     54 N          22.3502  -33.8213  -40.9972 N.am      9 UNK        -0.4200 
     55 CA         21.0622  -33.7084  -40.3051 C.3       9 UNK         0.0839 
     56 C          20.8732  -32.3897  -39.4961 C.2       9 UNK         0.5513 
     57 N          21.8102  -31.4493  -39.5113 N.am      9 UNK        -0.7519 
     58 O          19.8534  -32.2259  -38.8313 O.2       9 UNK        -0.4960 
     59 C59        19.8898  -33.9862  -41.2815 C.3       10 UNK        -0.0876 
     60 S60        19.8109  -32.8342  -42.7011 S.3       10 UNK        -0.2414 
     61 C61        18.2536  -31.9681  -42.3196 C.3       10 UNK         0.0169 
     62 H62        24.5621  -27.5402  -47.4592 H         1 UNK         0.0903 
     63 H63        24.3622  -29.2493  -47.0647 H         1 UNK         0.0903 
     64 H64        23.7149  -28.6120  -48.5782 H         1 UNK         0.0903 
     65 H65        21.5008  -28.2704  -48.5062 H         1 UNK         0.3096 
     66 H66        20.0204  -28.3865  -46.0436 H         1 UNK         0.1121 
     67 H67        19.1444  -28.1006  -48.9510 H         1 UNK         0.0849 
     68 H68        18.0156  -28.1816  -47.6312 H         1 UNK         0.0849 
     69 H69        16.7157  -30.3099  -47.7860 H         1 UNK         0.0865 
     70 H70        17.3949  -31.8488  -47.3429 H         1 UNK         0.0865 
     71 H71        18.4481  -32.1800  -45.0787 H         1 UNK         0.1346 
     72 H72        16.9249  -29.6438  -41.9681 H         1 UNK         0.1412 
     73 H73        16.2754  -28.6223  -46.0742 H         1 UNK         0.1426 
     74 H74        15.3274  -27.9088  -42.5401 H         1 UNK         0.0716 
     75 H75        14.8335  -27.7156  -44.1978 H         1 UNK         0.0716 
     76 H76        17.0533  -26.7870  -41.3783 H         1 UNK         0.0695 
     77 H77        17.5392  -25.1616  -41.7505 H         1 UNK         0.0695 
     78 H78        19.0668  -27.7224  -42.4240 H         1 UNK         0.0983 
     79 H79        20.2080  -26.7561  -43.9928 H         1 UNK         0.3095 
     80 H80        19.8130  -23.8777  -45.6815 H         1 UNK         0.0454 
     81 H81        22.6098  -24.3350  -44.5222 H         1 UNK         0.0851 
     82 H82        21.7129  -22.8272  -44.4458 H         1 UNK         0.0851 
     83 H83        22.2195  -23.4653  -46.0004 H         1 UNK         0.0851 
     84 H84        21.5677  -26.2854  -45.6726 H         1 UNK         0.2976 
     85 H85        18.4734  -27.6305  -39.9780 H         1 UNK         0.3116 
     86 H86        19.1472  -27.7109  -37.8848 H         1 UNK         0.0646 
     87 H87        20.0834  -24.8337  -38.4060 H         1 UNK         0.0847 
     88 H88        19.9064  -25.5680  -36.8140 H         1 UNK         0.0847 
     89 H89        18.5031  -25.3496  -37.8400 H         1 UNK         0.0847 
     90 H90        21.9231  -25.6587  -38.1622 H         1 UNK         0.3040 
     91 H91        23.7195  -27.8073  -37.3694 H         1 UNK         0.1015 
     92 H92        24.2351  -24.8423  -37.9737 H         1 UNK         0.0786 
     93 H93        25.3786  -25.9489  -37.2265 H         1 UNK         0.0786 
     94 H94        23.8987  -25.5272  -36.3824 H         1 UNK         0.0786 
     95 H95        22.7353  -26.5099  -40.4411 H         1 UNK         0.3172 
     96 H96        25.2365  -27.2412  -41.8334 H         1 UNK         0.0595 
     97 H97        24.0807  -26.3921  -43.8222 H         1 UNK         0.0839 
     98 H98        23.9286  -25.2091  -42.5305 H         1 UNK         0.0839 
     99 H99        22.5665  -26.2518  -42.9434 H         1 UNK         0.0839 
    100 H100       25.4452  -28.9788  -43.1180 H         1 UNK         0.2998 
    101 H101       25.3279  -31.0201  -43.9273 H         1 UNK         0.0822 
    102 H102       23.2152  -32.1209  -44.5539 H         1 UNK         0.0787 
    103 H103       22.2828  -31.0452  -43.5293 H         1 UNK         0.0787 
    104 H104       23.0959  -30.4221  -44.9596 H         1 UNK         0.0787 
    105 H105       24.6670  -33.3754  -43.3213 H         1 UNK         0.3055 
    106 H106       25.5892  -33.8898  -40.6754 H         1 UNK         0.1106 
    107 H107       25.1465  -36.2755  -41.2837 H         1 UNK         0.0828 
    108 H108       24.2565  -35.7638  -42.7104 H         1 UNK         0.0828 
    109 H109       25.9864  -35.4408  -42.5785 H         1 UNK         0.0828 
    110 H110       22.3722  -33.4511  -41.9356 H         1 UNK         0.2931 
    111 H111       21.0267  -34.5023  -39.5566 H         1 UNK         0.0412 
    112 H112       22.6556  -31.5522  -40.0581 H         1 UNK         0.3472 
    113 H113       21.6477  -30.5793  -39.0136 H         1 UNK         0.3472 
    114 H114       18.9412  -33.9880  -40.7416 H         1 UNK         0.0970 
    115 H115       19.9881  -34.9959  -41.6829 H         1 UNK         0.0970 
    116 H116       17.4672  -32.7069  -42.1599 H         1 UNK         0.0612 
    117 H117       18.3849  -31.4393  -41.3740 H         1 UNK         0.0612 
@<TRIPOS>BOND
     1    1    2 1    
     2    1   62 1    
     3    1   63 1    
     4    1   64 1    
     5    2    3 2    
     6    2    4 am   BACKBONE|DICT|INTERRES
     7    4    5 1    
     8    4   65 1    
     9    5    6 1    
    10    5   25 1    
    11    5   66 1    
    12    6    7 1    
    13    6   67 1    
    14    6   68 1    
    15    7    8 1    
    16    8    9 1    
    17    8   69 1    
    18    8   70 1    
    19    9   10 ar   
    20    9   14 ar   
    21   10   11 ar   
    22   10   71 1    
    23   11   12 ar   
    24   11   61 1    
    25   12   13 ar   
    26   12   72 1    
    27   13   14 ar   
    28   13   15 1    
    29   14   73 1    
    30   15   16 1    
    31   15   74 1    
    32   15   75 1    
    33   16   17 1    
    34   17   18 1    
    35   17   76 1    
    36   17   77 1    
    37   18   19 1    
    38   18   27 1    
    39   18   78 1    
    40   19   20 am   BACKBONE|DICT|INTERRES
    41   19   79 1    
    42   20   21 2    
    43   20   22 1    
    44   22   23 1    
    45   22   24 1    
    46   22   80 1    
    47   23   81 1    
    48   23   82 1    
    49   23   83 1    
    50   24   25 am   BACKBONE|DICT|INTERRES
    51   24   84 1    
    52   25   26 2    
    53   27   28 2    
    54   27   29 am   BACKBONE|DICT|INTERRES
    55   29   30 1    
    56   29   85 1    
    57   30   31 1    
    58   30   32 1    
    59   30   86 1    
    60   31   87 1    
    61   31   88 1    
    62   31   89 1    
    63   32   33 2    
    64   32   34 am   BACKBONE|DICT|INTERRES
    65   34   35 1    
    66   34   90 1    
    67   35   36 1    
    68   35   37 1    
    69   35   91 1    
    70   36   92 1    
    71   36   93 1    
    72   36   94 1    
    73   37   38 2    
    74   37   39 am   BACKBONE|DICT|INTERRES
    75   39   40 1    
    76   39   95 1    
    77   40   41 1    
    78   40   42 1    
    79   40   96 1    
    80   41   97 1    
    81   41   98 1    
    82   41   99 1    
    83   42   43 2    
    84   42   44 am   BACKBONE|DICT|INTERRES
    85   44   45 1    
    86   44  100 1    
    87   45   46 1    
    88   45   47 1    
    89   45  101 1    
    90   46  102 1    
    91   46  103 1    
    92   46  104 1    
    93   47   48 2    
    94   47   49 am   BACKBONE|DICT|INTERRES
    95   49   50 1    
    96   49  105 1    
    97   50   51 1    
    98   50   52 1    
    99   50  106 1    
   100   51  107 1    
   101   51  108 1    
   102   51  109 1    
   103   52   53 2    
   104   52   54 am   BACKBONE|DICT|INTERRES
   105   54   55 1    
   106   54  110 1    
   107   55   56 1    
   108   55   59 1    
   109   55  111 1    
   110   56   57 am   BACKBONE|DICT|INTERRES
   111   56   58 2    
   112   57  112 1    
   113   57  113 1    
   114   59   60 1    
   115   59  114 1    
   116   59  115 1    
   117   60   61 1    
   118   61  116 1    
   119   61  117 1    
@<TRIPOS>SUBSTRUCTURE
     1 UNK         1 GROUP             0       ****    0 ROOT    
