@<TRIPOS>MOLECULE
3R8
117   119    1
SMALL
USER_CHARGES


@<TRIPOS>ATOM
      1 CA         15.6622  -29.2109  -41.5085 C.3       0 UNK        -0.2013 
      2 C          15.6069  -27.8627  -42.2058 C.2       0 UNK         0.4866 
      3 O          14.6330  -27.1279  -42.0388 O.2       0 UNK        -0.5176 
      4 N          16.6392  -27.5349  -42.9900 N.am      1 UNK        -0.4884 
      5 CA         16.7620  -26.2708  -43.7144 C.3       1 UNK         0.0853 
      6 C6         15.8994  -26.2207  -45.0097 C.3       10 UNK        -0.0849 
      7 S7         16.5235  -27.1670  -46.4405 S.3       10 UNK        -0.2776 
      8 C8         16.0315  -28.8865  -46.0621 C.3       10 UNK         0.0316 
      9 C9         17.2347  -29.8152  -45.9125 C.ar      10 UNK        -0.0863 
     10 C10        17.2850  -30.7596  -44.8788 C.ar      10 UNK        -0.1009 
     11 C11        18.3792  -31.6258  -44.7585 C.ar      10 UNK        -0.0712 
     12 C12        19.4305  -31.5351  -45.6756 C.ar      10 UNK        -0.0894 
     13 C13        19.3980  -30.5901  -46.7043 C.ar      10 UNK        -0.0745 
     14 C14        18.2891  -29.7536  -46.8305 C.ar      10 UNK        -0.0972 
     15 C15        20.5746  -30.4436  -47.6595 C.3       10 UNK         0.0209 
     16 S16        21.4480  -28.8574  -47.4270 S.3       10 UNK        -0.2568 
     17 C17        21.9639  -28.9896  -45.6823 C.3       10 UNK        -0.0983 
     18 CA         22.2075  -27.6296  -44.9844 C.3       3 UNK         0.0876 
     19 N          21.0970  -26.6858  -45.1612 N.am      3 UNK        -0.4424 
     20 C          21.1862  -25.3706  -44.9226 C.2       2 UNK         0.4918 
     21 O          22.2191  -24.8203  -44.5391 O.2       2 UNK        -0.4875 
     22 CA         19.9217  -24.5124  -45.1277 C.3       2 UNK         0.0481 
     23 CB         19.9327  -23.8924  -46.5341 C.3       2 UNK        -0.1831 
     24 N          18.6253  -25.1702  -44.9079 N.am      2 UNK        -0.4498 
     25 C          18.2530  -25.8924  -43.8411 C.2       1 UNK         0.5027 
     26 O          19.0342  -26.2431  -42.9546 O.2       1 UNK        -0.4969 
     27 C          22.5468  -27.8969  -43.5027 C.2       3 UNK         0.5005 
     28 O          23.6410  -28.3961  -43.2344 O.2       3 UNK        -0.5279 
     29 N          21.6171  -27.6137  -42.5724 N.am      4 UNK        -0.4463 
     30 CA         21.6611  -28.0145  -41.1585 C.3       4 UNK         0.0283 
     31 CB         20.4133  -27.4930  -40.4296 C.3       4 UNK        -0.1875 
     32 C          22.9261  -27.6145  -40.3821 C.2       4 UNK         0.4949 
     33 O          23.2838  -28.3133  -39.4353 O.2       4 UNK        -0.5039 
     34 N          23.6006  -26.5405  -40.8120 N.am      5 UNK        -0.4663 
     35 CA         24.8904  -26.0960  -40.2765 C.3       5 UNK         0.0242 
     36 CB         25.2400  -24.7290  -40.8865 C.3       5 UNK        -0.1982 
     37 C          26.0422  -27.0965  -40.5035 C.2       5 UNK         0.5017 
     38 O          27.0044  -27.0746  -39.7350 O.2       5 UNK        -0.5012 
     39 N          25.9293  -27.9417  -41.5379 N.am      6 UNK        -0.4439 
     40 CA         26.8982  -28.9834  -41.8840 C.3       6 UNK         0.0297 
     41 CB         27.4003  -28.7495  -43.3186 C.3       6 UNK        -0.2006 
     42 C          26.2902  -30.3882  -41.7547 C.2       6 UNK         0.4892 
     43 O          26.9659  -31.2918  -41.2621 O.2       6 UNK        -0.5089 
     44 N          25.0392  -30.5560  -42.2055 N.am      7 UNK        -0.4243 
     45 CA         24.3344  -31.8396  -42.2566 C.3       7 UNK         0.0196 
     46 CB         23.2367  -31.7577  -43.3302 C.3       7 UNK        -0.2007 
     47 C          23.7390  -32.2850  -40.9093 C.2       7 UNK         0.5020 
     48 O          23.3766  -33.4546  -40.7840 O.2       7 UNK        -0.5147 
     49 N          23.6325  -31.3621  -39.9398 N.am      8 UNK        -0.4734 
     50 CA         23.0647  -31.5507  -38.5953 C.3       8 UNK         0.0238 
     51 CB         23.8960  -32.5611  -37.7749 C.3       8 UNK        -0.1912 
     52 C          21.5557  -31.8757  -38.5988 C.2       8 UNK         0.5038 
     53 O          21.0693  -32.5347  -37.6781 O.2       8 UNK        -0.5046 
     54 N          20.8402  -31.3912  -39.6229 N.am      9 UNK        -0.4200 
     55 CA         19.3861  -31.5461  -39.8022 C.3       9 UNK         0.0839 
     56 C          18.5080  -30.7329  -38.8043 C.2       9 UNK         0.5513 
     57 N          19.0631  -29.8482  -37.9851 N.am      9 UNK        -0.7519 
     58 O          17.2942  -30.9146  -38.7720 O.2       9 UNK        -0.4960 
     59 C59        18.9546  -31.2695  -41.2682 C.3       10 UNK        -0.0876 
     60 S60        19.7563  -32.3908  -42.4601 S.3       10 UNK        -0.2414 
     61 C61        18.4248  -32.6914  -43.6701 C.3       10 UNK         0.0169 
     62 H62        14.6793  -29.6813  -41.5122 H         1 UNK         0.0903 
     63 H63        16.3552  -29.8837  -42.0065 H         1 UNK         0.0903 
     64 H64        15.9788  -29.0881  -40.4731 H         1 UNK         0.0903 
     65 H65        17.4484  -28.1368  -43.0571 H         1 UNK         0.3096 
     66 H66        16.3671  -25.4941  -43.0550 H         1 UNK         0.1121 
     67 H67        14.8802  -26.5458  -44.7949 H         1 UNK         0.0849 
     68 H68        15.7927  -25.1833  -45.3310 H         1 UNK         0.0849 
     69 H69        15.4092  -28.9106  -45.1669 H         1 UNK         0.0865 
     70 H70        15.4073  -29.2573  -46.8760 H         1 UNK         0.0865 
     71 H71        16.4631  -30.8359  -44.1811 H         1 UNK         0.1346 
     72 H72        20.2827  -32.1936  -45.5750 H         1 UNK         0.1412 
     73 H73        18.2643  -29.0326  -47.6362 H         1 UNK         0.1426 
     74 H74        20.2149  -30.5047  -48.6875 H         1 UNK         0.0716 
     75 H75        21.2844  -31.2624  -47.5315 H         1 UNK         0.0716 
     76 H76        21.2142  -29.5502  -45.1244 H         1 UNK         0.0695 
     77 H77        22.8717  -29.5952  -45.6573 H         1 UNK         0.0695 
     78 H78        23.0958  -27.1809  -45.4345 H         1 UNK         0.0983 
     79 H79        20.2229  -27.0690  -45.4907 H         1 UNK         0.3095 
     80 H80        19.9783  -23.6978  -44.4033 H         1 UNK         0.0454 
     81 H81        20.8709  -23.3694  -46.7257 H         1 UNK         0.0851 
     82 H82        19.8194  -24.6517  -47.3090 H         1 UNK         0.0851 
     83 H83        19.1307  -23.1644  -46.6560 H         1 UNK         0.0851 
     84 H84        17.9213  -24.9936  -45.6107 H         1 UNK         0.2976 
     85 H85        20.7578  -27.1604  -42.8735 H         1 UNK         0.3116 
     86 H86        21.6249  -29.1043  -41.1501 H         1 UNK         0.0646 
     87 H87        20.4322  -27.7583  -39.3722 H         1 UNK         0.0847 
     88 H88        19.4982  -27.9101  -40.8486 H         1 UNK         0.0847 
     89 H89        20.3412  -26.4063  -40.4877 H         1 UNK         0.0847 
     90 H90        23.2326  -26.0343  -41.6052 H         1 UNK         0.3040 
     91 H91        24.7788  -25.9740  -39.1967 H         1 UNK         0.1015 
     92 H92        24.4772  -23.9846  -40.6571 H         1 UNK         0.0786 
     93 H93        25.3405  -24.7851  -41.9713 H         1 UNK         0.0786 
     94 H94        26.1850  -24.3543  -40.4902 H         1 UNK         0.0786 
     95 H95        25.0863  -27.8998  -42.1055 H         1 UNK         0.3172 
     96 H96        27.7610  -28.9408  -41.2161 H         1 UNK         0.0595 
     97 H97        28.1185  -29.5166  -43.6117 H         1 UNK         0.0839 
     98 H98        27.9015  -27.7857  -43.4087 H         1 UNK         0.0839 
     99 H99        26.5846  -28.7707  -44.0428 H         1 UNK         0.0839 
    100 H100       24.5507  -29.7601  -42.6138 H         1 UNK         0.2998 
    101 H101       25.0455  -32.6103  -42.5623 H         1 UNK         0.0822 
    102 H102       23.6552  -31.5140  -44.3065 H         1 UNK         0.0787 
    103 H103       22.7172  -32.7114  -43.4323 H         1 UNK         0.0787 
    104 H104       22.4876  -31.0038  -43.0865 H         1 UNK         0.0787 
    105 H105       23.9560  -30.4237  -40.1400 H         1 UNK         0.3055 
    106 H106       23.1519  -30.5863  -38.0927 H         1 UNK         0.1106 
    107 H107       23.7932  -33.5775  -38.1557 H         1 UNK         0.0828 
    108 H108       24.9551  -32.3039  -37.7845 H         1 UNK         0.0828 
    109 H109       23.5774  -32.5740  -36.7319 H         1 UNK         0.0828 
    110 H110       21.3297  -30.8970  -40.3511 H         1 UNK         0.2931 
    111 H111       19.1582  -32.5936  -39.5946 H         1 UNK         0.0412 
    112 H112       20.0597  -29.7090  -37.9779 H         1 UNK         0.3472 
    113 H113       18.4768  -29.3387  -37.3429 H         1 UNK         0.3472 
    114 H114       17.8768  -31.4016  -41.3592 H         1 UNK         0.0970 
    115 H115       19.1672  -30.2391  -41.5559 H         1 UNK         0.0970 
    116 H116       18.6050  -33.6586  -44.1412 H         1 UNK         0.0612 
    117 H117       17.4637  -32.7815  -43.1621 H         1 UNK         0.0612 
@<TRIPOS>BOND
     1    1    2 1    
     2    1   62 1    
     3    1   63 1    
     4    1   64 1    
     5    2    3 2    
     6    2    4 am   BACKBONE|DICT|INTERRES
     7    4    5 1    
     8    4   65 1    
     9    5    6 1    
    10    5   25 1    
    11    5   66 1    
    12    6    7 1    
    13    6   67 1    
    14    6   68 1    
    15    7    8 1    
    16    8    9 1    
    17    8   69 1    
    18    8   70 1    
    19    9   10 ar   
    20    9   14 ar   
    21   10   11 ar   
    22   10   71 1    
    23   11   12 ar   
    24   11   61 1    
    25   12   13 ar   
    26   12   72 1    
    27   13   14 ar   
    28   13   15 1    
    29   14   73 1    
    30   15   16 1    
    31   15   74 1    
    32   15   75 1    
    33   16   17 1    
    34   17   18 1    
    35   17   76 1    
    36   17   77 1    
    37   18   19 1    
    38   18   27 1    
    39   18   78 1    
    40   19   20 am   BACKBONE|DICT|INTERRES
    41   19   79 1    
    42   20   21 2    
    43   20   22 1    
    44   22   23 1    
    45   22   24 1    
    46   22   80 1    
    47   23   81 1    
    48   23   82 1    
    49   23   83 1    
    50   24   25 am   BACKBONE|DICT|INTERRES
    51   24   84 1    
    52   25   26 2    
    53   27   28 2    
    54   27   29 am   BACKBONE|DICT|INTERRES
    55   29   30 1    
    56   29   85 1    
    57   30   31 1    
    58   30   32 1    
    59   30   86 1    
    60   31   87 1    
    61   31   88 1    
    62   31   89 1    
    63   32   33 2    
    64   32   34 am   BACKBONE|DICT|INTERRES
    65   34   35 1    
    66   34   90 1    
    67   35   36 1    
    68   35   37 1    
    69   35   91 1    
    70   36   92 1    
    71   36   93 1    
    72   36   94 1    
    73   37   38 2    
    74   37   39 am   BACKBONE|DICT|INTERRES
    75   39   40 1    
    76   39   95 1    
    77   40   41 1    
    78   40   42 1    
    79   40   96 1    
    80   41   97 1    
    81   41   98 1    
    82   41   99 1    
    83   42   43 2    
    84   42   44 am   BACKBONE|DICT|INTERRES
    85   44   45 1    
    86   44  100 1    
    87   45   46 1    
    88   45   47 1    
    89   45  101 1    
    90   46  102 1    
    91   46  103 1    
    92   46  104 1    
    93   47   48 2    
    94   47   49 am   BACKBONE|DICT|INTERRES
    95   49   50 1    
    96   49  105 1    
    97   50   51 1    
    98   50   52 1    
    99   50  106 1    
   100   51  107 1    
   101   51  108 1    
   102   51  109 1    
   103   52   53 2    
   104   52   54 am   BACKBONE|DICT|INTERRES
   105   54   55 1    
   106   54  110 1    
   107   55   56 1    
   108   55   59 1    
   109   55  111 1    
   110   56   57 am   BACKBONE|DICT|INTERRES
   111   56   58 2    
   112   57  112 1    
   113   57  113 1    
   114   59   60 1    
   115   59  114 1    
   116   59  115 1    
   117   60   61 1    
   118   61  116 1    
   119   61  117 1    
@<TRIPOS>SUBSTRUCTURE
     1 UNK         1 GROUP             0       ****    0 ROOT    
