@<TRIPOS>MOLECULE
3R8
117   119    1
SMALL
USER_CHARGES


@<TRIPOS>ATOM
      1 CA         14.9204  -23.8202  -45.4889 C.3       0 UNK        -0.2013 
      2 C          16.2224  -24.5870  -45.6629 C.2       0 UNK         0.4866 
      3 O          16.7065  -25.1755  -44.6969 O.2       0 UNK        -0.5176 
      4 N          16.7923  -24.5505  -46.8793 N.am      1 UNK        -0.4884 
      5 CA         17.9941  -25.2534  -47.3774 C.3       1 UNK         0.0853 
      6 C6         17.7197  -26.7073  -47.8775 C.3       10 UNK        -0.0849 
      7 S7         16.9597  -27.8558  -46.6773 S.3       10 UNK        -0.2776 
      8 C8         18.4284  -28.6163  -45.9084 C.3       10 UNK         0.0316 
      9 C9         18.1055  -29.3241  -44.6010 C.ar      10 UNK        -0.0863 
     10 C10        18.5913  -30.6120  -44.3587 C.ar      10 UNK        -0.1009 
     11 C11        18.3600  -31.2432  -43.1310 C.ar      10 UNK        -0.0712 
     12 C12        17.6052  -30.5812  -42.1549 C.ar      10 UNK        -0.0894 
     13 C13        17.1031  -29.2967  -42.3901 C.ar      10 UNK        -0.0745 
     14 C14        17.3671  -28.6717  -43.6095 C.ar      10 UNK        -0.0972 
     15 C15        16.2534  -28.5915  -41.3426 C.3       10 UNK         0.0209 
     16 S16        17.2577  -27.6168  -40.1790 S.3       10 UNK        -0.2568 
     17 C17        17.7069  -26.1398  -41.1602 C.3       10 UNK        -0.0983 
     18 CA         19.1591  -26.1649  -41.7064 C.3       3 UNK         0.0876 
     19 N          19.3158  -25.2164  -42.8233 N.am      3 UNK        -0.4424 
     20 C          20.4145  -25.0449  -43.5745 C.2       2 UNK         0.4918 
     21 O          21.4417  -25.7114  -43.4418 O.2       2 UNK        -0.4875 
     22 CA         20.3550  -23.8979  -44.6021 C.3       2 UNK         0.0481 
     23 CB         21.7269  -23.5792  -45.2356 C.3       2 UNK        -0.1831 
     24 N          19.3241  -24.1317  -45.6176 N.am      2 UNK        -0.4498 
     25 C          19.2849  -25.1149  -46.5294 C.2       1 UNK         0.5027 
     26 O          20.2304  -25.8742  -46.7452 O.2       1 UNK        -0.4969 
     27 C          20.2115  -25.9934  -40.5782 C.2       3 UNK         0.5005 
     28 O          20.4491  -26.9319  -39.8199 O.2       3 UNK        -0.5279 
     29 N          20.9006  -24.8433  -40.5190 N.am      4 UNK        -0.4463 
     30 CA         22.0956  -24.6279  -39.6925 C.3       4 UNK         0.0283 
     31 CB         22.5799  -23.1807  -39.8753 C.3       4 UNK        -0.1875 
     32 C          23.2474  -25.6183  -39.9802 C.2       4 UNK         0.4949 
     33 O          24.0648  -25.8589  -39.0920 O.2       4 UNK        -0.5039 
     34 N          23.2804  -26.1887  -41.1937 N.am      5 UNK        -0.4663 
     35 CA         24.2365  -27.2074  -41.6279 C.3       5 UNK         0.0242 
     36 CB         24.6853  -26.8761  -43.0629 C.3       5 UNK        -0.1982 
     37 C          23.6729  -28.6408  -41.5416 C.2       5 UNK         0.5017 
     38 O          24.3128  -29.5526  -42.0677 O.2       5 UNK        -0.5012 
     39 N          22.5178  -28.8506  -40.8833 N.am      6 UNK        -0.4439 
     40 CA         21.8299  -30.1507  -40.7788 C.3       6 UNK         0.0297 
     41 CB         20.4549  -29.9812  -40.1168 C.3       6 UNK        -0.2006 
     42 C          22.6178  -31.2789  -40.0845 C.2       6 UNK         0.4892 
     43 O          22.2202  -32.4379  -40.1949 O.2       6 UNK        -0.5089 
     44 N          23.7446  -30.9568  -39.4337 N.am      7 UNK        -0.4243 
     45 CA         24.7372  -31.9276  -38.9597 C.3       7 UNK         0.0196 
     46 CB         25.8500  -31.1844  -38.2041 C.3       7 UNK        -0.2007 
     47 C          25.3355  -32.7895  -40.0920 C.2       7 UNK         0.5020 
     48 O          25.7421  -33.9229  -39.8359 O.2       7 UNK        -0.5147 
     49 N          25.3442  -32.2622  -41.3262 N.am      8 UNK        -0.4734 
     50 CA         25.7505  -32.9770  -42.5383 C.3       8 UNK         0.0238 
     51 CB         26.0054  -31.9555  -43.6590 C.3       8 UNK        -0.1912 
     52 C          24.7390  -34.0427  -43.0049 C.2       8 UNK         0.5038 
     53 O          25.1108  -34.8824  -43.8262 O.2       8 UNK        -0.5046 
     54 N          23.4967  -34.0039  -42.4985 N.am      9 UNK        -0.4200 
     55 CA         22.4401  -34.9817  -42.8133 C.3       9 UNK         0.0839 
     56 C          22.6459  -36.3778  -42.1545 C.2       9 UNK         0.5513 
     57 N          23.5607  -36.5431  -41.2053 N.am      9 UNK        -0.7519 
     58 O          21.9629  -37.3320  -42.5176 O.2       9 UNK        -0.4960 
     59 C59        21.0178  -34.4403  -42.5049 C.3       10 UNK        -0.0876 
     60 S60        20.6558  -32.8395  -43.3012 S.3       10 UNK        -0.2414 
     61 C61        18.8965  -32.6463  -42.8592 C.3       10 UNK         0.0169 
     62 H62        15.0340  -23.0571  -44.7194 H         1 UNK         0.0903 
     63 H63        14.6060  -23.3301  -46.4101 H         1 UNK         0.0903 
     64 H64        14.1270  -24.5000  -45.1792 H         1 UNK         0.0903 
     65 H65        16.3243  -24.0033  -47.5893 H         1 UNK         0.3096 
     66 H66        18.2564  -24.6932  -48.2767 H         1 UNK         0.1121 
     67 H67        17.0318  -26.6524  -48.7224 H         1 UNK         0.0849 
     68 H68        18.6222  -27.1631  -48.2892 H         1 UNK         0.0849 
     69 H69        18.8904  -29.2983  -46.6240 H         1 UNK         0.0865 
     70 H70        19.1704  -27.8560  -45.6778 H         1 UNK         0.0865 
     71 H71        19.1688  -31.1200  -45.1190 H         1 UNK         0.1346 
     72 H72        17.4062  -31.0644  -41.2081 H         1 UNK         0.1412 
     73 H73        16.9943  -27.6726  -43.7916 H         1 UNK         0.1426 
     74 H74        15.5117  -27.9488  -41.8195 H         1 UNK         0.0716 
     75 H75        15.6873  -29.3315  -40.7750 H         1 UNK         0.0716 
     76 H76        17.5450  -25.2534  -40.5441 H         1 UNK         0.0695 
     77 H77        16.9973  -26.0532  -41.9843 H         1 UNK         0.0695 
     78 H78        19.3397  -27.1536  -42.1336 H         1 UNK         0.0983 
     79 H79        18.4953  -24.6725  -43.0539 H         1 UNK         0.3095 
     80 H80        20.0424  -23.0076  -44.0544 H         1 UNK         0.0454 
     81 H81        22.4467  -23.2874  -44.4700 H         1 UNK         0.0851 
     82 H82        21.6555  -22.7546  -45.9445 H         1 UNK         0.0851 
     83 H83        22.1504  -24.4364  -45.7592 H         1 UNK         0.0851 
     84 H84        18.4854  -23.5755  -45.5258 H         1 UNK         0.2976 
     85 H85        20.6532  -24.1071  -41.1634 H         1 UNK         0.3116 
     86 H86        21.8027  -24.7638  -38.6494 H         1 UNK         0.0646 
     87 H87        21.8099  -22.4633  -39.5912 H         1 UNK         0.0847 
     88 H88        23.4517  -22.9798  -39.2509 H         1 UNK         0.0847 
     89 H89        22.8667  -22.9780  -40.9080 H         1 UNK         0.0847 
     90 H90        22.5669  -25.9404  -41.8748 H         1 UNK         0.3040 
     91 H91        25.1212  -27.1804  -40.9881 H         1 UNK         0.1015 
     92 H92        25.0906  -25.8663  -43.1289 H         1 UNK         0.0786 
     93 H93        23.8592  -26.9524  -43.7710 H         1 UNK         0.0786 
     94 H94        25.4670  -27.5586  -43.3996 H         1 UNK         0.0786 
     95 H95        22.0382  -28.0580  -40.4668 H         1 UNK         0.3172 
     96 H96        21.6572  -30.4881  -41.8020 H         1 UNK         0.0595 
     97 H97        20.5363  -29.5652  -39.1123 H         1 UNK         0.0839 
     98 H98        19.9355  -30.9370  -40.0348 H         1 UNK         0.0839 
     99 H99        19.8141  -29.3265  -40.7061 H         1 UNK         0.0839 
    100 H100       23.9985  -29.9813  -39.3838 H         1 UNK         0.2998 
    101 H101       24.2358  -32.6035  -38.2638 H         1 UNK         0.0822 
    102 H102       25.4521  -30.6325  -37.3522 H         1 UNK         0.0787 
    103 H103       26.5924  -31.8839  -37.8170 H         1 UNK         0.0787 
    104 H104       26.3733  -30.4775  -38.8494 H         1 UNK         0.0787 
    105 H105       24.9843  -31.3206  -41.4609 H         1 UNK         0.3055 
    106 H106       26.6886  -33.4957  -42.3284 H         1 UNK         0.1106 
    107 H107       25.0941  -31.4213  -43.9312 H         1 UNK         0.0828 
    108 H108       26.7505  -31.2168  -43.3631 H         1 UNK         0.0828 
    109 H109       26.3763  -32.4465  -44.5598 H         1 UNK         0.0828 
    110 H110       23.2559  -33.3027  -41.8080 H         1 UNK         0.2931 
    111 H111       22.4817  -35.1550  -43.8905 H         1 UNK         0.0412 
    112 H112       24.1271  -35.7668  -40.8975 H         1 UNK         0.3472 
    113 H113       23.6843  -37.4537  -40.7910 H         1 UNK         0.3472 
    114 H114       20.2635  -35.1567  -42.8366 H         1 UNK         0.0970 
    115 H115       20.8779  -34.3311  -41.4281 H         1 UNK         0.0970 
    116 H116       18.3047  -33.3693  -43.4219 H         1 UNK         0.0612 
    117 H117       18.7767  -32.8954  -41.8036 H         1 UNK         0.0612 
@<TRIPOS>BOND
     1    1    2 1    
     2    1   62 1    
     3    1   63 1    
     4    1   64 1    
     5    2    3 2    
     6    2    4 am   BACKBONE|DICT|INTERRES
     7    4    5 1    
     8    4   65 1    
     9    5    6 1    
    10    5   25 1    
    11    5   66 1    
    12    6    7 1    
    13    6   67 1    
    14    6   68 1    
    15    7    8 1    
    16    8    9 1    
    17    8   69 1    
    18    8   70 1    
    19    9   10 ar   
    20    9   14 ar   
    21   10   11 ar   
    22   10   71 1    
    23   11   12 ar   
    24   11   61 1    
    25   12   13 ar   
    26   12   72 1    
    27   13   14 ar   
    28   13   15 1    
    29   14   73 1    
    30   15   16 1    
    31   15   74 1    
    32   15   75 1    
    33   16   17 1    
    34   17   18 1    
    35   17   76 1    
    36   17   77 1    
    37   18   19 1    
    38   18   27 1    
    39   18   78 1    
    40   19   20 am   BACKBONE|DICT|INTERRES
    41   19   79 1    
    42   20   21 2    
    43   20   22 1    
    44   22   23 1    
    45   22   24 1    
    46   22   80 1    
    47   23   81 1    
    48   23   82 1    
    49   23   83 1    
    50   24   25 am   BACKBONE|DICT|INTERRES
    51   24   84 1    
    52   25   26 2    
    53   27   28 2    
    54   27   29 am   BACKBONE|DICT|INTERRES
    55   29   30 1    
    56   29   85 1    
    57   30   31 1    
    58   30   32 1    
    59   30   86 1    
    60   31   87 1    
    61   31   88 1    
    62   31   89 1    
    63   32   33 2    
    64   32   34 am   BACKBONE|DICT|INTERRES
    65   34   35 1    
    66   34   90 1    
    67   35   36 1    
    68   35   37 1    
    69   35   91 1    
    70   36   92 1    
    71   36   93 1    
    72   36   94 1    
    73   37   38 2    
    74   37   39 am   BACKBONE|DICT|INTERRES
    75   39   40 1    
    76   39   95 1    
    77   40   41 1    
    78   40   42 1    
    79   40   96 1    
    80   41   97 1    
    81   41   98 1    
    82   41   99 1    
    83   42   43 2    
    84   42   44 am   BACKBONE|DICT|INTERRES
    85   44   45 1    
    86   44  100 1    
    87   45   46 1    
    88   45   47 1    
    89   45  101 1    
    90   46  102 1    
    91   46  103 1    
    92   46  104 1    
    93   47   48 2    
    94   47   49 am   BACKBONE|DICT|INTERRES
    95   49   50 1    
    96   49  105 1    
    97   50   51 1    
    98   50   52 1    
    99   50  106 1    
   100   51  107 1    
   101   51  108 1    
   102   51  109 1    
   103   52   53 2    
   104   52   54 am   BACKBONE|DICT|INTERRES
   105   54   55 1    
   106   54  110 1    
   107   55   56 1    
   108   55   59 1    
   109   55  111 1    
   110   56   57 am   BACKBONE|DICT|INTERRES
   111   56   58 2    
   112   57  112 1    
   113   57  113 1    
   114   59   60 1    
   115   59  114 1    
   116   59  115 1    
   117   60   61 1    
   118   61  116 1    
   119   61  117 1    
@<TRIPOS>SUBSTRUCTURE
     1 UNK         1 GROUP             0       ****    0 ROOT    
