@<TRIPOS>MOLECULE
3R8
117   119    1
SMALL
USER_CHARGES


@<TRIPOS>ATOM
      1 CA         18.5831  -27.7237  -41.6286 C.3       0 UNK        -0.2013 
      2 C          17.6161  -26.9284  -42.4906 C.2       0 UNK         0.4866 
      3 O          16.7741  -26.2069  -41.9543 O.2       0 UNK        -0.5176 
      4 N          17.7272  -27.0687  -43.8163 N.am      1 UNK        -0.4884 
      5 CA         16.9151  -26.3650  -44.8121 C.3       1 UNK         0.0853 
      6 C6         16.5347  -27.2767  -46.0127 C.3       10 UNK        -0.0849 
      7 S7         15.6603  -28.7974  -45.4969 S.3       10 UNK        -0.2776 
      8 C8         16.7909  -30.1150  -46.0578 C.3       10 UNK         0.0316 
      9 C9         18.0181  -30.2548  -45.1650 C.ar      10 UNK        -0.0863 
     10 C10        18.0054  -31.1362  -44.0805 C.ar      10 UNK        -0.1009 
     11 C11        19.1434  -31.2982  -43.2849 C.ar      10 UNK        -0.0712 
     12 C12        20.2898  -30.5511  -43.5651 C.ar      10 UNK        -0.0894 
     13 C13        20.3200  -29.6558  -44.6375 C.ar      10 UNK        -0.0745 
     14 C14        19.1794  -29.5287  -45.4429 C.ar      10 UNK        -0.0972 
     15 C15        21.5938  -28.8391  -44.8608 C.3       10 UNK         0.0209 
     16 S16        21.6749  -27.9482  -46.4495 S.3       10 UNK        -0.2568 
     17 C17        22.8512  -26.5994  -46.0784 C.3       10 UNK        -0.0983 
     18 CA         22.1999  -25.2574  -45.6319 C.3       3 UNK         0.0876 
     19 N          20.9160  -25.0057  -46.2882 N.am      3 UNK        -0.4424 
     20 C          20.3230  -23.8129  -46.4164 C.2       2 UNK         0.4918 
     21 O          20.8532  -22.7436  -46.1130 O.2       2 UNK        -0.4875 
     22 CA         18.8865  -23.8212  -46.9709 C.3       2 UNK         0.0481 
     23 CB         18.9009  -23.8418  -48.5078 C.3       2 UNK        -0.1831 
     24 N          18.0968  -24.9529  -46.4706 N.am      2 UNK        -0.4498 
     25 C          17.6481  -25.0634  -45.2094 C.2       1 UNK         0.5027 
     26 O          17.7919  -24.1742  -44.3679 O.2       1 UNK        -0.4969 
     27 C          22.0380  -25.1638  -44.1012 C.2       3 UNK         0.5005 
     28 O          21.0116  -25.5843  -43.5591 O.2       3 UNK        -0.5279 
     29 N          23.0619  -24.6213  -43.4296 N.am      4 UNK        -0.4463 
     30 CA         23.0764  -24.3048  -41.9987 C.3       4 UNK         0.0283 
     31 CB         24.1525  -23.2324  -41.7412 C.3       4 UNK        -0.1875 
     32 C          23.2496  -25.5432  -41.0963 C.2       4 UNK         0.4949 
     33 O          24.2299  -25.6289  -40.3553 O.2       4 UNK        -0.5039 
     34 N          22.2779  -26.4638  -41.1671 N.am      5 UNK        -0.4663 
     35 CA         22.1093  -27.6508  -40.3166 C.3       5 UNK         0.0242 
     36 CB         21.7082  -27.2254  -38.8887 C.3       5 UNK        -0.1982 
     37 C          23.3162  -28.6088  -40.3442 C.2       5 UNK         0.5017 
     38 O          23.8229  -29.0060  -39.2943 O.2       5 UNK        -0.5012 
     39 N          23.7575  -28.9518  -41.5596 N.am      6 UNK        -0.4439 
     40 CA         24.8145  -29.9314  -41.8124 C.3       6 UNK         0.0297 
     41 CB         25.3780  -29.6920  -43.2241 C.3       6 UNK        -0.2006 
     42 C          24.3036  -31.3777  -41.6716 C.2       6 UNK         0.4892 
     43 O          23.0927  -31.6156  -41.6989 O.2       6 UNK        -0.5089 
     44 N          25.2535  -32.3193  -41.5780 N.am      7 UNK        -0.4243 
     45 CA         25.0553  -33.7734  -41.5655 C.3       7 UNK         0.0196 
     46 CB         24.6337  -34.2616  -42.9719 C.3       7 UNK        -0.2007 
     47 C          24.1159  -34.2269  -40.4302 C.2       7 UNK         0.5020 
     48 O          24.3887  -33.9224  -39.2681 O.2       7 UNK        -0.5147 
     49 N          23.0297  -34.9324  -40.7754 N.am      8 UNK        -0.4734 
     50 CA         22.0288  -35.4736  -39.8484 C.3       8 UNK         0.0238 
     51 CB         21.0377  -36.3456  -40.6370 C.3       8 UNK        -0.1912 
     52 C          21.2702  -34.4130  -39.0291 C.2       8 UNK         0.5038 
     53 O          20.7470  -34.7470  -37.9651 O.2       8 UNK        -0.5046 
     54 N          21.2298  -33.1703  -39.5252 N.am      9 UNK        -0.4200 
     55 CA         20.6697  -32.0097  -38.8198 C.3       9 UNK         0.0839 
     56 C          21.6586  -31.3639  -37.8059 C.2       9 UNK         0.5513 
     57 N          22.9091  -31.8012  -37.7058 N.am      9 UNK        -0.7519 
     58 O          21.2681  -30.4648  -37.0666 O.2       9 UNK        -0.4960 
     59 C59        20.0805  -30.9740  -39.8152 C.3       10 UNK        -0.0876 
     60 S60        18.5449  -31.5874  -40.5901 S.3       10 UNK        -0.2414 
     61 C61        19.1440  -32.3086  -42.1488 C.3       10 UNK         0.0169 
     62 H62        18.0542  -28.5225  -41.1097 H         1 UNK         0.0903 
     63 H63        19.3763  -28.1710  -42.2253 H         1 UNK         0.0903 
     64 H64        19.0411  -27.0735  -40.8839 H         1 UNK         0.0903 
     65 H65        18.4314  -27.6915  -44.1864 H         1 UNK         0.3096 
     66 H66        15.9777  -26.0494  -44.3481 H         1 UNK         0.1121 
     67 H67        15.8691  -26.7388  -46.6908 H         1 UNK         0.0849 
     68 H68        17.4087  -27.5467  -46.6036 H         1 UNK         0.0849 
     69 H69        16.2420  -31.0579  -46.0721 H         1 UNK         0.0865 
     70 H70        17.0890  -29.9318  -47.0914 H         1 UNK         0.0865 
     71 H71        17.1144  -31.7101  -43.8645 H         1 UNK         0.1346 
     72 H72        21.1668  -30.6710  -42.9473 H         1 UNK         0.1412 
     73 H73        19.1823  -28.8648  -46.2932 H         1 UNK         0.1426 
     74 H74        21.6811  -28.1263  -44.0418 H         1 UNK         0.0716 
     75 H75        22.4596  -29.4985  -44.7990 H         1 UNK         0.0716 
     76 H76        23.6010  -26.9473  -45.3646 H         1 UNK         0.0695 
     77 H77        23.4042  -26.4209  -47.0018 H         1 UNK         0.0695 
     78 H78        22.8764  -24.4532  -45.9313 H         1 UNK         0.0983 
     79 H79        20.3997  -25.8352  -46.5387 H         1 UNK         0.3095 
     80 H80        18.4003  -22.8965  -46.6523 H         1 UNK         0.0454 
     81 H81        17.8923  -23.7729  -48.9154 H         1 UNK         0.0851 
     82 H82        19.4654  -22.9959  -48.9025 H         1 UNK         0.0851 
     83 H83        19.3609  -24.7500  -48.8992 H         1 UNK         0.0851 
     84 H84        17.9201  -25.7043  -47.1208 H         1 UNK         0.2976 
     85 H85        23.8865  -24.3491  -43.9461 H         1 UNK         0.3116 
     86 H86        22.1116  -23.8622  -41.7403 H         1 UNK         0.0646 
     87 H87        24.1650  -22.9353  -40.6916 H         1 UNK         0.0847 
     88 H88        23.9649  -22.3315  -42.3256 H         1 UNK         0.0847 
     89 H89        25.1516  -23.5930  -41.9890 H         1 UNK         0.0847 
     90 H90        21.5577  -26.2957  -41.8671 H         1 UNK         0.3040 
     91 H91        21.2775  -28.2178  -40.7327 H         1 UNK         0.1015 
     92 H92        22.5076  -26.6751  -38.3912 H         1 UNK         0.0786 
     93 H93        21.4800  -28.0934  -38.2705 H         1 UNK         0.0786 
     94 H94        20.8202  -26.5935  -38.8964 H         1 UNK         0.0786 
     95 H95        23.2850  -28.5744  -42.3652 H         1 UNK         0.3172 
     96 H96        25.6160  -29.7756  -41.0870 H         1 UNK         0.0595 
     97 H97        24.6388  -29.8986  -43.9980 H         1 UNK         0.0839 
     98 H98        26.2355  -30.3369  -43.4200 H         1 UNK         0.0839 
     99 H99        25.7178  -28.6635  -43.3488 H         1 UNK         0.0839 
    100 H100       26.2158  -32.0156  -41.5239 H         1 UNK         0.2998 
    101 H101       26.0273  -34.2156  -41.3418 H         1 UNK         0.0822 
    102 H102       25.3632  -33.9575  -43.7228 H         1 UNK         0.0787 
    103 H103       24.5745  -35.3500  -43.0151 H         1 UNK         0.0787 
    104 H104       23.6669  -33.8584  -43.2767 H         1 UNK         0.0787 
    105 H105       22.8822  -35.1177  -41.7573 H         1 UNK         0.3055 
    106 H106       22.5542  -36.1098  -39.1326 H         1 UNK         0.1106 
    107 H107       20.2956  -36.7918  -39.9731 H         1 UNK         0.0828 
    108 H108       20.4964  -35.7652  -41.3854 H         1 UNK         0.0828 
    109 H109       21.5451  -37.1648  -41.1467 H         1 UNK         0.0828 
    110 H110       21.7363  -32.9697  -40.3780 H         1 UNK         0.2931 
    111 H111       19.8396  -32.3614  -38.2035 H         1 UNK         0.0412 
    112 H112       23.5270  -31.3579  -37.0454 H         1 UNK         0.3472 
    113 H113       23.2594  -32.5455  -38.2983 H         1 UNK         0.3472 
    114 H114       20.8114  -30.7030  -40.5769 H         1 UNK         0.0970 
    115 H115       19.8221  -30.0464  -39.3010 H         1 UNK         0.0970 
    116 H116       20.1415  -32.7285  -42.0154 H         1 UNK         0.0612 
    117 H117       18.4990  -33.1492  -42.4088 H         1 UNK         0.0612 
@<TRIPOS>BOND
     1    1    2 1    
     2    1   62 1    
     3    1   63 1    
     4    1   64 1    
     5    2    3 2    
     6    2    4 am   BACKBONE|DICT|INTERRES
     7    4    5 1    
     8    4   65 1    
     9    5    6 1    
    10    5   25 1    
    11    5   66 1    
    12    6    7 1    
    13    6   67 1    
    14    6   68 1    
    15    7    8 1    
    16    8    9 1    
    17    8   69 1    
    18    8   70 1    
    19    9   10 ar   
    20    9   14 ar   
    21   10   11 ar   
    22   10   71 1    
    23   11   12 ar   
    24   11   61 1    
    25   12   13 ar   
    26   12   72 1    
    27   13   14 ar   
    28   13   15 1    
    29   14   73 1    
    30   15   16 1    
    31   15   74 1    
    32   15   75 1    
    33   16   17 1    
    34   17   18 1    
    35   17   76 1    
    36   17   77 1    
    37   18   19 1    
    38   18   27 1    
    39   18   78 1    
    40   19   20 am   BACKBONE|DICT|INTERRES
    41   19   79 1    
    42   20   21 2    
    43   20   22 1    
    44   22   23 1    
    45   22   24 1    
    46   22   80 1    
    47   23   81 1    
    48   23   82 1    
    49   23   83 1    
    50   24   25 am   BACKBONE|DICT|INTERRES
    51   24   84 1    
    52   25   26 2    
    53   27   28 2    
    54   27   29 am   BACKBONE|DICT|INTERRES
    55   29   30 1    
    56   29   85 1    
    57   30   31 1    
    58   30   32 1    
    59   30   86 1    
    60   31   87 1    
    61   31   88 1    
    62   31   89 1    
    63   32   33 2    
    64   32   34 am   BACKBONE|DICT|INTERRES
    65   34   35 1    
    66   34   90 1    
    67   35   36 1    
    68   35   37 1    
    69   35   91 1    
    70   36   92 1    
    71   36   93 1    
    72   36   94 1    
    73   37   38 2    
    74   37   39 am   BACKBONE|DICT|INTERRES
    75   39   40 1    
    76   39   95 1    
    77   40   41 1    
    78   40   42 1    
    79   40   96 1    
    80   41   97 1    
    81   41   98 1    
    82   41   99 1    
    83   42   43 2    
    84   42   44 am   BACKBONE|DICT|INTERRES
    85   44   45 1    
    86   44  100 1    
    87   45   46 1    
    88   45   47 1    
    89   45  101 1    
    90   46  102 1    
    91   46  103 1    
    92   46  104 1    
    93   47   48 2    
    94   47   49 am   BACKBONE|DICT|INTERRES
    95   49   50 1    
    96   49  105 1    
    97   50   51 1    
    98   50   52 1    
    99   50  106 1    
   100   51  107 1    
   101   51  108 1    
   102   51  109 1    
   103   52   53 2    
   104   52   54 am   BACKBONE|DICT|INTERRES
   105   54   55 1    
   106   54  110 1    
   107   55   56 1    
   108   55   59 1    
   109   55  111 1    
   110   56   57 am   BACKBONE|DICT|INTERRES
   111   56   58 2    
   112   57  112 1    
   113   57  113 1    
   114   59   60 1    
   115   59  114 1    
   116   59  115 1    
   117   60   61 1    
   118   61  116 1    
   119   61  117 1    
@<TRIPOS>SUBSTRUCTURE
     1 UNK         1 GROUP             0       ****    0 ROOT    
