@<TRIPOS>MOLECULE
3R8
117   119    1
SMALL
USER_CHARGES


@<TRIPOS>ATOM
      1 CA         18.1333  -23.2207  -48.4315 C.3       0 UNK        -0.2013 
      2 C          16.8192  -23.8542  -47.9800 C.2       0 UNK         0.4866 
      3 O          15.7588  -23.2847  -48.2313 O.2       0 UNK        -0.5176 
      4 N          16.8249  -25.0269  -47.3300 N.am      1 UNK        -0.4884 
      5 CA         17.9979  -25.7869  -46.8816 C.3       1 UNK         0.0853 
      6 C6         17.6088  -27.2491  -46.5469 C.3       10 UNK        -0.0849 
      7 S7         19.0265  -28.3919  -46.6615 S.3       10 UNK        -0.2776 
      8 C8         18.2959  -29.9296  -46.0182 C.3       10 UNK         0.0316 
      9 C9         18.3618  -30.0024  -44.4989 C.ar      10 UNK        -0.0863 
     10 C10        19.4844  -30.5555  -43.8751 C.ar      10 UNK        -0.1009 
     11 C11        19.5355  -30.6782  -42.4833 C.ar      10 UNK        -0.0712 
     12 C12        18.4569  -30.2334  -41.7143 C.ar      10 UNK        -0.0894 
     13 C13        17.3416  -29.6492  -42.3231 C.ar      10 UNK        -0.0745 
     14 C14        17.2954  -29.5469  -43.7172 C.ar      10 UNK        -0.0972 
     15 C15        16.1848  -29.1330  -41.4763 C.3       10 UNK         0.0209 
     16 S16        16.7074  -27.8609  -40.2775 S.3       10 UNK        -0.2568 
     17 C17        17.3418  -26.5374  -41.3639 C.3       10 UNK        -0.0983 
     18 CA         18.8836  -26.5694  -41.5119 C.3       3 UNK         0.0876 
     19 N          19.3223  -25.7824  -42.6649 N.am      3 UNK        -0.4424 
     20 C          20.5744  -25.7242  -43.1346 C.2       2 UNK         0.4918 
     21 O          21.5178  -26.3371  -42.6324 O.2       2 UNK        -0.4875 
     22 CA         20.7944  -24.8553  -44.3895 C.3       2 UNK         0.0481 
     23 CB         22.2699  -24.8166  -44.8296 C.3       2 UNK        -0.1831 
     24 N          19.9807  -25.3235  -45.5144 N.am      2 UNK        -0.4498 
     25 C          18.6689  -25.1063  -45.6703 C.2       1 UNK         0.5027 
     26 O          17.9916  -24.4389  -44.8831 O.2       1 UNK        -0.4969 
     27 C          19.6138  -26.1323  -40.2244 C.2       3 UNK         0.5005 
     28 O          19.8253  -24.9344  -40.0184 O.2       3 UNK        -0.5279 
     29 N          20.0280  -27.1180  -39.4155 N.am      4 UNK        -0.4463 
     30 CA         20.8385  -27.0295  -38.1907 C.3       4 UNK         0.0283 
     31 CB         20.1697  -26.1411  -37.1231 C.3       4 UNK        -0.1875 
     32 C          22.3086  -26.6214  -38.4158 C.2       4 UNK         0.4949 
     33 O          23.1670  -27.0622  -37.6512 O.2       4 UNK        -0.5039 
     34 N          22.5870  -25.8100  -39.4443 N.am      5 UNK        -0.4663 
     35 CA         23.9357  -25.4373  -39.8740 C.3       5 UNK         0.0242 
     36 CB         23.8639  -24.2007  -40.7839 C.3       5 UNK        -0.1982 
     37 C          24.6553  -26.6022  -40.5736 C.2       5 UNK         0.5017 
     38 O          25.8198  -26.8641  -40.2687 O.2       5 UNK        -0.5012 
     39 N          23.9479  -27.2866  -41.4831 N.am      6 UNK        -0.4439 
     40 CA         24.3994  -28.5131  -42.1392 C.3       6 UNK         0.0297 
     41 CB         23.5131  -28.7836  -43.3672 C.3       6 UNK        -0.2006 
     42 C          24.3516  -29.7107  -41.1764 C.2       6 UNK         0.4892 
     43 O          23.4754  -29.7682  -40.3114 O.2       6 UNK        -0.5089 
     44 N          25.2691  -30.6619  -41.3820 N.am      7 UNK        -0.4243 
     45 CA         25.3617  -31.9196  -40.6314 C.3       7 UNK         0.0196 
     46 CB         26.6969  -31.9400  -39.8645 C.3       7 UNK        -0.2007 
     47 C          25.2234  -33.1521  -41.5456 C.2       7 UNK         0.5020 
     48 O          25.4452  -34.2714  -41.0840 O.2       7 UNK        -0.5147 
     49 N          24.8830  -32.9413  -42.8258 N.am      8 UNK        -0.4734 
     50 CA         24.7694  -33.9930  -43.8429 C.3       8 UNK         0.0238 
     51 CB         24.8508  -33.3474  -45.2365 C.3       8 UNK        -0.1912 
     52 C          23.4920  -34.8438  -43.7237 C.2       8 UNK         0.5038 
     53 O          23.4647  -35.9572  -44.2504 O.2       8 UNK        -0.5046 
     54 N          22.4580  -34.3030  -43.0685 N.am      9 UNK        -0.4200 
     55 CA         21.1745  -34.9709  -42.8193 C.3       9 UNK         0.0839 
     56 C          21.2672  -36.1218  -41.7775 C.2       9 UNK         0.5513 
     57 N          20.3301  -37.0598  -41.8124 N.am      9 UNK        -0.7519 
     58 O          22.1555  -36.1637  -40.9287 O.2       9 UNK        -0.4960 
     59 C59        20.0593  -33.9465  -42.4803 C.3       10 UNK        -0.0876 
     60 S60        20.4187  -32.8866  -41.0334 S.3       10 UNK        -0.2414 
     61 C61        20.7614  -31.2734  -41.8063 C.3       10 UNK         0.0169 
     62 H62        18.7291  -22.9037  -47.5765 H         1 UNK         0.0903 
     63 H63        18.7187  -23.9110  -49.0376 H         1 UNK         0.0903 
     64 H64        17.9386  -22.3382  -49.0408 H         1 UNK         0.0903 
     65 H65        15.9363  -25.3979  -47.0250 H         1 UNK         0.3096 
     66 H66        18.7128  -25.8060  -47.7066 H         1 UNK         0.1121 
     67 H67        16.8601  -27.6080  -47.2555 H         1 UNK         0.0849 
     68 H68        17.1463  -27.3196  -45.5608 H         1 UNK         0.0849 
     69 H69        17.2653  -30.0273  -46.3633 H         1 UNK         0.0865 
     70 H70        18.8342  -30.7761  -46.4472 H         1 UNK         0.0865 
     71 H71        20.3148  -30.8996  -44.4765 H         1 UNK         0.1346 
     72 H72        18.4920  -30.3291  -40.6376 H         1 UNK         0.1412 
     73 H73        16.4254  -29.1182  -44.1949 H         1 UNK         0.1426 
     74 H74        15.7450  -29.9699  -40.9323 H         1 UNK         0.0716 
     75 H75        15.3915  -28.7231  -42.1035 H         1 UNK         0.0716 
     76 H76        17.0093  -25.5727  -40.9757 H         1 UNK         0.0695 
     77 H77        16.8679  -26.6431  -42.3415 H         1 UNK         0.0695 
     78 H78        19.1881  -27.5921  -41.7366 H         1 UNK         0.0983 
     79 H79        18.6159  -25.2373  -43.1465 H         1 UNK         0.3095 
     80 H80        20.4965  -23.8358  -44.1364 H         1 UNK         0.0454 
     81 H81        22.4099  -24.1645  -45.6917 H         1 UNK         0.0851 
     82 H82        22.6393  -25.8077  -45.0950 H         1 UNK         0.0851 
     83 H83        22.9079  -24.4345  -44.0327 H         1 UNK         0.0851 
     84 H84        20.4434  -25.9428  -46.1656 H         1 UNK         0.2976 
     85 H85        19.8085  -28.0636  -39.6965 H         1 UNK         0.3116 
     86 H86        20.8648  -28.0457  -37.7937 H         1 UNK         0.0646 
     87 H87        20.1481  -25.0916  -37.4172 H         1 UNK         0.0847 
     88 H88        19.1450  -26.4571  -36.9279 H         1 UNK         0.0847 
     89 H89        20.7120  -26.1976  -36.1785 H         1 UNK         0.0847 
     90 H90        21.8074  -25.4556  -39.9876 H         1 UNK         0.3040 
     91 H91        24.5184  -25.1733  -38.9883 H         1 UNK         0.1015 
     92 H92        24.8572  -23.9118  -41.1302 H         1 UNK         0.0786 
     93 H93        23.4435  -23.3452  -40.2548 H         1 UNK         0.0786 
     94 H94        23.2493  -24.3820  -41.6651 H         1 UNK         0.0786 
     95 H95        23.0001  -26.9840  -41.6964 H         1 UNK         0.3172 
     96 H96        25.4278  -28.3658  -42.4761 H         1 UNK         0.0595 
     97 H97        22.4693  -28.9330  -43.0861 H         1 UNK         0.0839 
     98 H98        23.8384  -29.6753  -43.9038 H         1 UNK         0.0839 
     99 H99        23.5499  -27.9526  -44.0714 H         1 UNK         0.0839 
    100 H100       25.9649  -30.5203  -42.1020 H         1 UNK         0.2998 
    101 H101       24.5512  -31.9900  -39.9028 H         1 UNK         0.0822 
    102 H102       26.7852  -32.8361  -39.2486 H         1 UNK         0.0787 
    103 H103       27.5516  -31.9227  -40.5418 H         1 UNK         0.0787 
    104 H104       26.7811  -31.0825  -39.1965 H         1 UNK         0.0787 
    105 H105       24.7041  -31.9954  -43.1274 H         1 UNK         0.3055 
    106 H106       25.6175  -34.6729  -43.7316 H         1 UNK         0.1106 
    107 H107       25.7885  -32.8079  -45.3709 H         1 UNK         0.0828 
    108 H108       24.8017  -34.1044  -46.0208 H         1 UNK         0.0828 
    109 H109       24.0315  -32.6483  -45.4084 H         1 UNK         0.0828 
    110 H110       22.5883  -33.4124  -42.6153 H         1 UNK         0.2931 
    111 H111       20.8871  -35.4400  -43.7629 H         1 UNK         0.0412 
    112 H112       19.5939  -37.0388  -42.5012 H         1 UNK         0.3472 
    113 H113       20.3639  -37.8107  -41.1401 H         1 UNK         0.3472 
    114 H114       19.1132  -34.4588  -42.2974 H         1 UNK         0.0970 
    115 H115       19.8743  -33.3210  -43.3535 H         1 UNK         0.0970 
    116 H116       21.5897  -31.3743  -42.5088 H         1 UNK         0.0612 
    117 H117       21.0974  -30.5846  -41.0313 H         1 UNK         0.0612 
@<TRIPOS>BOND
     1    1    2 1    
     2    1   62 1    
     3    1   63 1    
     4    1   64 1    
     5    2    3 2    
     6    2    4 am   BACKBONE|DICT|INTERRES
     7    4    5 1    
     8    4   65 1    
     9    5    6 1    
    10    5   25 1    
    11    5   66 1    
    12    6    7 1    
    13    6   67 1    
    14    6   68 1    
    15    7    8 1    
    16    8    9 1    
    17    8   69 1    
    18    8   70 1    
    19    9   10 ar   
    20    9   14 ar   
    21   10   11 ar   
    22   10   71 1    
    23   11   12 ar   
    24   11   61 1    
    25   12   13 ar   
    26   12   72 1    
    27   13   14 ar   
    28   13   15 1    
    29   14   73 1    
    30   15   16 1    
    31   15   74 1    
    32   15   75 1    
    33   16   17 1    
    34   17   18 1    
    35   17   76 1    
    36   17   77 1    
    37   18   19 1    
    38   18   27 1    
    39   18   78 1    
    40   19   20 am   BACKBONE|DICT|INTERRES
    41   19   79 1    
    42   20   21 2    
    43   20   22 1    
    44   22   23 1    
    45   22   24 1    
    46   22   80 1    
    47   23   81 1    
    48   23   82 1    
    49   23   83 1    
    50   24   25 am   BACKBONE|DICT|INTERRES
    51   24   84 1    
    52   25   26 2    
    53   27   28 2    
    54   27   29 am   BACKBONE|DICT|INTERRES
    55   29   30 1    
    56   29   85 1    
    57   30   31 1    
    58   30   32 1    
    59   30   86 1    
    60   31   87 1    
    61   31   88 1    
    62   31   89 1    
    63   32   33 2    
    64   32   34 am   BACKBONE|DICT|INTERRES
    65   34   35 1    
    66   34   90 1    
    67   35   36 1    
    68   35   37 1    
    69   35   91 1    
    70   36   92 1    
    71   36   93 1    
    72   36   94 1    
    73   37   38 2    
    74   37   39 am   BACKBONE|DICT|INTERRES
    75   39   40 1    
    76   39   95 1    
    77   40   41 1    
    78   40   42 1    
    79   40   96 1    
    80   41   97 1    
    81   41   98 1    
    82   41   99 1    
    83   42   43 2    
    84   42   44 am   BACKBONE|DICT|INTERRES
    85   44   45 1    
    86   44  100 1    
    87   45   46 1    
    88   45   47 1    
    89   45  101 1    
    90   46  102 1    
    91   46  103 1    
    92   46  104 1    
    93   47   48 2    
    94   47   49 am   BACKBONE|DICT|INTERRES
    95   49   50 1    
    96   49  105 1    
    97   50   51 1    
    98   50   52 1    
    99   50  106 1    
   100   51  107 1    
   101   51  108 1    
   102   51  109 1    
   103   52   53 2    
   104   52   54 am   BACKBONE|DICT|INTERRES
   105   54   55 1    
   106   54  110 1    
   107   55   56 1    
   108   55   59 1    
   109   55  111 1    
   110   56   57 am   BACKBONE|DICT|INTERRES
   111   56   58 2    
   112   57  112 1    
   113   57  113 1    
   114   59   60 1    
   115   59  114 1    
   116   59  115 1    
   117   60   61 1    
   118   61  116 1    
   119   61  117 1    
@<TRIPOS>SUBSTRUCTURE
     1 UNK         1 GROUP             0       ****    0 ROOT    
