@<TRIPOS>MOLECULE
3R8
117   119    1
SMALL
USER_CHARGES


@<TRIPOS>ATOM
      1 CA         14.0456  -23.7778  -41.4823 C.3       0 UNK        -0.2013 
      2 C          14.7100  -24.2255  -42.7757 C.2       0 UNK         0.4866 
      3 O          15.5780  -23.5220  -43.2924 O.2       0 UNK        -0.5176 
      4 N          14.3054  -25.3883  -43.3047 N.am      1 UNK        -0.4884 
      5 CA         14.8539  -25.9865  -44.5294 C.3       1 UNK         0.0853 
      6 C6         13.9401  -27.1280  -45.0452 C.3       10 UNK        -0.0849 
      7 S7         14.2173  -27.5337  -46.8033 S.3       10 UNK        -0.2776 
      8 C8         14.6455  -29.3083  -46.7370 C.3       10 UNK         0.0316 
      9 C9         16.1165  -29.5844  -46.4323 C.ar      10 UNK        -0.0863 
     10 C10        16.4743  -30.4441  -45.3868 C.ar      10 UNK        -0.1009 
     11 C11        17.8134  -30.7975  -45.1791 C.ar      10 UNK        -0.0712 
     12 C12        18.7977  -30.2790  -46.0249 C.ar      10 UNK        -0.0894 
     13 C13        18.4619  -29.3852  -47.0450 C.ar      10 UNK        -0.0745 
     14 C14        17.1194  -29.0508  -47.2493 C.ar      10 UNK        -0.0972 
     15 C15        19.5416  -28.8075  -47.9497 C.3       10 UNK         0.0209 
     16 S16        20.2562  -27.2708  -47.2767 S.3       10 UNK        -0.2568 
     17 C17        21.4335  -27.9026  -46.0318 C.3       10 UNK        -0.0983 
     18 CA         21.1387  -27.3998  -44.5932 C.3       3 UNK         0.0876 
     19 N          19.7924  -27.7577  -44.1448 N.am      3 UNK        -0.4424 
     20 C          19.1019  -27.1456  -43.1766 C.2       2 UNK         0.4918 
     21 O          19.4924  -26.1396  -42.5793 O.2       2 UNK        -0.4875 
     22 CA         17.7702  -27.8037  -42.7818 C.3       2 UNK         0.0481 
     23 CB         17.7379  -28.0993  -41.2732 C.3       2 UNK        -0.1831 
     24 N          16.5738  -27.0474  -43.1524 N.am      2 UNK        -0.4498 
     25 C          16.3008  -26.4854  -44.3411 C.2       1 UNK         0.5027 
     26 O          17.1025  -26.3655  -45.2667 O.2       1 UNK        -0.4969 
     27 C          22.1687  -27.9313  -43.5733 C.2       3 UNK         0.5005 
     28 O          22.9289  -28.8517  -43.8787 O.2       3 UNK        -0.5279 
     29 N          22.1545  -27.3655  -42.3593 N.am      4 UNK        -0.4463 
     30 CA         22.9147  -27.7887  -41.1782 C.3       4 UNK         0.0283 
     31 CB         22.2594  -27.1677  -39.9307 C.3       4 UNK        -0.1875 
     32 C          24.4309  -27.5014  -41.2427 C.2       4 UNK         0.4949 
     33 O          25.0305  -27.1554  -40.2229 O.2       4 UNK        -0.5039 
     34 N          25.0423  -27.6771  -42.4201 N.am      5 UNK        -0.4663 
     35 CA         26.4820  -27.5756  -42.6610 C.3       5 UNK         0.0242 
     36 CB         26.7462  -27.6554  -44.1739 C.3       5 UNK        -0.1982 
     37 C          27.2137  -28.6922  -41.9016 C.2       5 UNK         0.5017 
     38 O          27.0669  -29.8599  -42.2636 O.2       5 UNK        -0.5012 
     39 N          27.9059  -28.3179  -40.8159 N.am      6 UNK        -0.4439 
     40 CA         28.5000  -29.2080  -39.8079 C.3       6 UNK         0.0297 
     41 CB         29.6734  -30.0157  -40.4037 C.3       6 UNK        -0.2006 
     42 C          27.4540  -30.0990  -39.0991 C.2       6 UNK         0.4892 
     43 O          27.7713  -31.2267  -38.7176 O.2       6 UNK        -0.5089 
     44 N          26.2289  -29.5689  -38.9406 N.am      7 UNK        -0.4243 
     45 CA         25.0481  -30.2083  -38.3478 C.3       7 UNK         0.0196 
     46 CB         25.2542  -30.4511  -36.8371 C.3       7 UNK        -0.2007 
     47 C          24.5896  -31.4701  -39.1077 C.2       7 UNK         0.5020 
     48 O          24.2065  -32.4585  -38.4801 O.2       7 UNK        -0.5147 
     49 N          24.6255  -31.4144  -40.4490 N.am      8 UNK        -0.4734 
     50 CA         24.2136  -32.5009  -41.3503 C.3       8 UNK         0.0238 
     51 CB         24.5290  -32.1081  -42.8023 C.3       8 UNK        -0.1912 
     52 C          22.7359  -32.9188  -41.2212 C.2       8 UNK         0.5038 
     53 O          22.4223  -34.0886  -41.4460 O.2       8 UNK        -0.5046 
     54 N          21.8698  -31.9740  -40.8439 N.am      9 UNK        -0.4200 
     55 CA         20.4595  -32.1832  -40.5059 C.3       9 UNK         0.0839 
     56 C          19.9409  -31.0394  -39.5941 C.2       9 UNK         0.5513 
     57 N          18.7144  -31.1400  -39.1006 N.am      9 UNK        -0.7519 
     58 O          20.6411  -30.0660  -39.3206 O.2       9 UNK        -0.4960 
     59 C59        19.5617  -32.4707  -41.7437 C.3       10 UNK        -0.0876 
     60 S60        19.4625  -31.1041  -42.9480 S.3       10 UNK        -0.2414 
     61 C61        18.1921  -31.7735  -44.0712 C.3       10 UNK         0.0169 
     62 H62        13.5606  -22.8124  -41.6245 H         1 UNK         0.0903 
     63 H63        13.2925  -24.4882  -41.1418 H         1 UNK         0.0903 
     64 H64        14.7916  -23.6714  -40.6951 H         1 UNK         0.0903 
     65 H65        13.5743  -25.9123  -42.8436 H         1 UNK         0.3096 
     66 H66        14.8807  -25.1996  -45.2874 H         1 UNK         0.1121 
     67 H67        12.8943  -26.8276  -44.9624 H         1 UNK         0.0849 
     68 H68        14.0386  -28.0221  -44.4263 H         1 UNK         0.0849 
     69 H69        14.4172  -29.7476  -47.7091 H         1 UNK         0.0865 
     70 H70        13.9926  -29.8142  -46.0241 H         1 UNK         0.0865 
     71 H71        15.7057  -30.8667  -44.7541 H         1 UNK         0.1346 
     72 H72        19.8280  -30.5736  -45.8816 H         1 UNK         0.1412 
     73 H73        16.8509  -28.3811  -48.0551 H         1 UNK         0.1426 
     74 H74        19.1184  -28.5891  -48.9314 H         1 UNK         0.0716 
     75 H75        20.3305  -29.5413  -48.1221 H         1 UNK         0.0716 
     76 H76        22.4301  -27.5804  -46.3390 H         1 UNK         0.0695 
     77 H77        21.4548  -28.9921  -46.0660 H         1 UNK         0.0695 
     78 H78        21.2220  -26.3106  -44.6027 H         1 UNK         0.0983 
     79 H79        19.3787  -28.5620  -44.5956 H         1 UNK         0.3095 
     80 H80        17.6952  -28.7578  -43.3010 H         1 UNK         0.0454 
     81 H81        17.6965  -27.1832  -40.6828 H         1 UNK         0.0851 
     82 H82        18.6320  -28.6425  -40.9649 H         1 UNK         0.0851 
     83 H83        16.8803  -28.7159  -41.0043 H         1 UNK         0.0851 
     84 H84        15.8374  -27.0288  -42.4629 H         1 UNK         0.2976 
     85 H85        21.4672  -26.6344  -42.2075 H         1 UNK         0.3116 
     86 H86        22.8112  -28.8722  -41.0963 H         1 UNK         0.0646 
     87 H87        21.1967  -27.4062  -39.8791 H         1 UNK         0.0847 
     88 H88        22.3605  -26.0819  -39.9215 H         1 UNK         0.0847 
     89 H89        22.7131  -27.5466  -39.0143 H         1 UNK         0.0847 
     90 H90        24.4750  -28.0527  -43.1762 H         1 UNK         0.3040 
     91 H91        26.8270  -26.6036  -42.3018 H         1 UNK         0.1015 
     92 H92        27.8142  -27.5930  -44.3870 H         1 UNK         0.0786 
     93 H93        26.2608  -26.8361  -44.7045 H         1 UNK         0.0786 
     94 H94        26.3819  -28.5915  -44.6000 H         1 UNK         0.0786 
     95 H95        27.9298  -27.3324  -40.5890 H         1 UNK         0.3172 
     96 H96        28.9106  -28.5574  -39.0344 H         1 UNK         0.0595 
     97 H97        29.3320  -30.7478  -41.1360 H         1 UNK         0.0839 
     98 H98        30.2066  -30.5625  -39.6250 H         1 UNK         0.0839 
     99 H99        30.3972  -29.3639  -40.8926 H         1 UNK         0.0839 
    100 H100       26.0691  -28.6349  -39.3071 H         1 UNK         0.2998 
    101 H101       24.2335  -29.4900  -38.4502 H         1 UNK         0.0822 
    102 H102       25.5504  -29.5357  -36.3250 H         1 UNK         0.0787 
    103 H103       24.3331  -30.7992  -36.3679 H         1 UNK         0.0787 
    104 H104       26.0193  -31.2047  -36.6477 H         1 UNK         0.0787 
    105 H105       25.0313  -30.5993  -40.8873 H         1 UNK         0.3055 
    106 H106       24.8127  -33.3782  -41.0967 H         1 UNK         0.1106 
    107 H107       24.2074  -32.8843  -43.4982 H         1 UNK         0.0828 
    108 H108       25.5993  -31.9694  -42.9525 H         1 UNK         0.0828 
    109 H109       24.0257  -31.1845  -43.0898 H         1 UNK         0.0828 
    110 H110       22.2070  -31.0428  -40.6452 H         1 UNK         0.2931 
    111 H111       20.4328  -33.0723  -39.8728 H         1 UNK         0.0412 
    112 H112       18.1310  -31.9369  -39.3004 H         1 UNK         0.3472 
    113 H113       18.3705  -30.4068  -38.5008 H         1 UNK         0.3472 
    114 H114       19.9271  -33.3559  -42.2658 H         1 UNK         0.0970 
    115 H115       18.5511  -32.7248  -41.4209 H         1 UNK         0.0970 
    116 H116       17.3124  -32.0431  -43.4847 H         1 UNK         0.0612 
    117 H117       18.5627  -32.6951  -44.5221 H         1 UNK         0.0612 
@<TRIPOS>BOND
     1    1    2 1    
     2    1   62 1    
     3    1   63 1    
     4    1   64 1    
     5    2    3 2    
     6    2    4 am   BACKBONE|DICT|INTERRES
     7    4    5 1    
     8    4   65 1    
     9    5    6 1    
    10    5   25 1    
    11    5   66 1    
    12    6    7 1    
    13    6   67 1    
    14    6   68 1    
    15    7    8 1    
    16    8    9 1    
    17    8   69 1    
    18    8   70 1    
    19    9   10 ar   
    20    9   14 ar   
    21   10   11 ar   
    22   10   71 1    
    23   11   12 ar   
    24   11   61 1    
    25   12   13 ar   
    26   12   72 1    
    27   13   14 ar   
    28   13   15 1    
    29   14   73 1    
    30   15   16 1    
    31   15   74 1    
    32   15   75 1    
    33   16   17 1    
    34   17   18 1    
    35   17   76 1    
    36   17   77 1    
    37   18   19 1    
    38   18   27 1    
    39   18   78 1    
    40   19   20 am   BACKBONE|DICT|INTERRES
    41   19   79 1    
    42   20   21 2    
    43   20   22 1    
    44   22   23 1    
    45   22   24 1    
    46   22   80 1    
    47   23   81 1    
    48   23   82 1    
    49   23   83 1    
    50   24   25 am   BACKBONE|DICT|INTERRES
    51   24   84 1    
    52   25   26 2    
    53   27   28 2    
    54   27   29 am   BACKBONE|DICT|INTERRES
    55   29   30 1    
    56   29   85 1    
    57   30   31 1    
    58   30   32 1    
    59   30   86 1    
    60   31   87 1    
    61   31   88 1    
    62   31   89 1    
    63   32   33 2    
    64   32   34 am   BACKBONE|DICT|INTERRES
    65   34   35 1    
    66   34   90 1    
    67   35   36 1    
    68   35   37 1    
    69   35   91 1    
    70   36   92 1    
    71   36   93 1    
    72   36   94 1    
    73   37   38 2    
    74   37   39 am   BACKBONE|DICT|INTERRES
    75   39   40 1    
    76   39   95 1    
    77   40   41 1    
    78   40   42 1    
    79   40   96 1    
    80   41   97 1    
    81   41   98 1    
    82   41   99 1    
    83   42   43 2    
    84   42   44 am   BACKBONE|DICT|INTERRES
    85   44   45 1    
    86   44  100 1    
    87   45   46 1    
    88   45   47 1    
    89   45  101 1    
    90   46  102 1    
    91   46  103 1    
    92   46  104 1    
    93   47   48 2    
    94   47   49 am   BACKBONE|DICT|INTERRES
    95   49   50 1    
    96   49  105 1    
    97   50   51 1    
    98   50   52 1    
    99   50  106 1    
   100   51  107 1    
   101   51  108 1    
   102   51  109 1    
   103   52   53 2    
   104   52   54 am   BACKBONE|DICT|INTERRES
   105   54   55 1    
   106   54  110 1    
   107   55   56 1    
   108   55   59 1    
   109   55  111 1    
   110   56   57 am   BACKBONE|DICT|INTERRES
   111   56   58 2    
   112   57  112 1    
   113   57  113 1    
   114   59   60 1    
   115   59  114 1    
   116   59  115 1    
   117   60   61 1    
   118   61  116 1    
   119   61  117 1    
@<TRIPOS>SUBSTRUCTURE
     1 UNK         1 GROUP             0       ****    0 ROOT    
