@<TRIPOS>MOLECULE
3R8
117   119    1
SMALL
USER_CHARGES


@<TRIPOS>ATOM
      1 CA         18.8195  -28.0042  -41.3621 C.3       0 UNK        -0.2013 
      2 C          18.0281  -26.9764  -42.1537 C.2       0 UNK         0.4866 
      3 O          17.4970  -26.0318  -41.5688 O.2       0 UNK        -0.5176 
      4 N          17.9499  -27.1581  -43.4774 N.am      1 UNK        -0.4884 
      5 CA         17.2951  -26.2427  -44.4198 C.3       1 UNK         0.0853 
      6 C6         16.6247  -27.0077  -45.5956 C.3       10 UNK        -0.0849 
      7 S7         15.4398  -28.2758  -45.0334 S.3       10 UNK        -0.2776 
      8 C8         16.1615  -29.7937  -45.7384 C.3       10 UNK         0.0316 
      9 C9         17.4620  -30.2005  -45.0559 C.ar      10 UNK        -0.0863 
     10 C10        17.4305  -30.7664  -43.7782 C.ar      10 UNK        -0.1009 
     11 C11        18.6044  -31.2164  -43.1675 C.ar      10 UNK        -0.0712 
     12 C12        19.8214  -31.0852  -43.8479 C.ar      10 UNK        -0.0894 
     13 C13        19.8736  -30.5084  -45.1202 C.ar      10 UNK        -0.0745 
     14 C14        18.6868  -30.0707  -45.7203 C.ar      10 UNK        -0.0972 
     15 C15        21.2028  -30.4534  -45.8692 C.3       10 UNK         0.0209 
     16 S16        21.5535  -28.8373  -46.6355 S.3       10 UNK        -0.2568 
     17 C17        22.1235  -27.8565  -45.2078 C.3       10 UNK        -0.0983 
     18 CA         22.3242  -26.3649  -45.5808 C.3       3 UNK         0.0876 
     19 N          21.0879  -25.7794  -46.1033 N.am      3 UNK        -0.4424 
     20 C          20.9118  -24.5375  -46.5753 C.2       2 UNK         0.4918 
     21 O          21.8272  -23.7379  -46.7694 O.2       2 UNK        -0.4875 
     22 CA         19.4540  -24.1025  -46.8402 C.3       2 UNK         0.0481 
     23 CB         19.1796  -24.0428  -48.3514 C.3       2 UNK        -0.1831 
     24 N          18.4416  -24.9586  -46.2008 N.am      2 UNK        -0.4498 
     25 C          18.3209  -25.1793  -44.8803 C.2       1 UNK         0.5027 
     26 O          19.0374  -24.6185  -44.0469 O.2       1 UNK        -0.4969 
     27 C          22.8943  -25.5783  -44.3790 C.2       3 UNK         0.5005 
     28 O          24.1145  -25.5539  -44.2115 O.2       3 UNK        -0.5279 
     29 N          22.0143  -24.9460  -43.5808 N.am      4 UNK        -0.4463 
     30 CA         22.2581  -24.0129  -42.4677 C.3       4 UNK         0.0283 
     31 CB         22.9618  -22.7370  -42.9676 C.3       4 UNK        -0.1875 
     32 C          22.9890  -24.5894  -41.2400 C.2       4 UNK         0.4949 
     33 O          22.5902  -24.2991  -40.1127 O.2       4 UNK        -0.5039 
     34 N          24.0358  -25.3896  -41.4661 N.am      5 UNK        -0.4663 
     35 CA         24.8779  -26.0140  -40.4407 C.3       5 UNK         0.0242 
     36 CB         26.2041  -26.4408  -41.0926 C.3       5 UNK        -0.1982 
     37 C          24.2185  -27.2140  -39.7364 C.2       5 UNK         0.5017 
     38 O          24.7521  -27.6783  -38.7284 O.2       5 UNK        -0.5012 
     39 N          23.0970  -27.7015  -40.2889 N.am      6 UNK        -0.4439 
     40 CA         22.3284  -28.8767  -39.8619 C.3       6 UNK         0.0297 
     41 CB         21.6823  -28.6516  -38.4787 C.3       6 UNK        -0.2006 
     42 C          23.1432  -30.1825  -39.9488 C.2       6 UNK         0.4892 
     43 O          23.0893  -31.0171  -39.0422 O.2       6 UNK        -0.5089 
     44 N          23.8892  -30.3280  -41.0525 N.am      7 UNK        -0.4243 
     45 CA         24.7019  -31.5001  -41.3668 C.3       7 UNK         0.0196 
     46 CB         25.5696  -31.1983  -42.6001 C.3       7 UNK        -0.2007 
     47 C          23.8254  -32.7412  -41.6004 C.2       7 UNK         0.5020 
     48 O          22.9785  -32.7250  -42.4949 O.2       7 UNK        -0.5147 
     49 N          24.0608  -33.7843  -40.7928 N.am      8 UNK        -0.4734 
     50 CA         23.4074  -35.1009  -40.8194 C.3       8 UNK         0.0238 
     51 CB         23.7136  -35.8371  -42.1425 C.3       8 UNK        -0.1912 
     52 C          21.8989  -35.0890  -40.4898 C.2       8 UNK         0.5038 
     53 O          21.2118  -36.0607  -40.8110 O.2       8 UNK        -0.5046 
     54 N          21.4071  -34.0265  -39.8356 N.am      9 UNK        -0.4200 
     55 CA         20.0036  -33.9074  -39.3975 C.3       9 UNK         0.0839 
     56 C          19.6480  -34.7453  -38.1347 C.2       9 UNK         0.5513 
     57 N          20.6090  -35.3155  -37.4172 N.am      9 UNK        -0.7519 
     58 O          18.4735  -34.8858  -37.8037 O.2       9 UNK        -0.4960 
     59 C59        19.5526  -32.4328  -39.2218 C.3       10 UNK        -0.0876 
     60 S60        19.8673  -31.3925  -40.6829 S.3       10 UNK        -0.2414 
     61 C61        18.5320  -31.9039  -41.8072 C.3       10 UNK         0.0169 
     62 H62        19.4560  -28.6062  -42.0100 H         1 UNK         0.0903 
     63 H63        19.4559  -27.5082  -40.6300 H         1 UNK         0.0903 
     64 H64        18.1431  -28.6727  -40.8303 H         1 UNK         0.0903 
     65 H65        18.3639  -27.9837  -43.8878 H         1 UNK         0.3096 
     66 H66        16.5076  -25.6959  -43.8961 H         1 UNK         0.1121 
     67 H67        17.3755  -27.4782  -46.2326 H         1 UNK         0.0849 
     68 H68        16.0682  -26.3169  -46.2319 H         1 UNK         0.0849 
     69 H69        15.4382  -30.6038  -45.6339 H         1 UNK         0.0865 
     70 H70        16.3081  -29.6623  -46.8117 H         1 UNK         0.0865 
     71 H71        16.4816  -30.8802  -43.2714 H         1 UNK         0.1346 
     72 H72        20.7294  -31.4599  -43.3938 H         1 UNK         0.1412 
     73 H73        18.7163  -29.6574  -46.7194 H         1 UNK         0.1426 
     74 H74        21.1800  -31.2084  -46.6559 H         1 UNK         0.0716 
     75 H75        22.0335  -30.7214  -45.2137 H         1 UNK         0.0716 
     76 H76        23.0581  -28.2929  -44.8496 H         1 UNK         0.0695 
     77 H77        21.3986  -27.9614  -44.3977 H         1 UNK         0.0695 
     78 H78        23.0688  -26.3049  -46.3776 H         1 UNK         0.0983 
     79 H79        20.2742  -26.3709  -46.0412 H         1 UNK         0.3095 
     80 H80        19.3392  -23.0967  -46.4314 H         1 UNK         0.0454 
     81 H81        19.8932  -23.3870  -48.8524 H         1 UNK         0.0851 
     82 H82        18.1841  -23.6512  -48.5607 H         1 UNK         0.0851 
     83 H83        19.2605  -25.0261  -48.8165 H         1 UNK         0.0851 
     84 H84        17.8178  -25.4454  -46.8280 H         1 UNK         0.2976 
     85 H85        21.0305  -25.0409  -43.8167 H         1 UNK         0.3116 
     86 H86        21.2651  -23.7193  -42.1224 H         1 UNK         0.0646 
     87 H87        23.9664  -22.9439  -43.3378 H         1 UNK         0.0847 
     88 H88        22.3994  -22.2653  -43.7736 H         1 UNK         0.0847 
     89 H89        23.0565  -22.0036  -42.1657 H         1 UNK         0.0847 
     90 H90        24.2883  -25.5485  -42.4417 H         1 UNK         0.3040 
     91 H91        25.0942  -25.2690  -39.6716 H         1 UNK         0.1015 
     92 H92        26.8800  -26.8809  -40.3579 H         1 UNK         0.0786 
     93 H93        26.7205  -25.5885  -41.5348 H         1 UNK         0.0786 
     94 H94        26.0474  -27.1819  -41.8776 H         1 UNK         0.0786 
     95 H95        22.7591  -27.2237  -41.1118 H         1 UNK         0.3172 
     96 H96        21.5216  -28.9789  -40.5867 H         1 UNK         0.0595 
     97 H97        22.4286  -28.5977  -37.6857 H         1 UNK         0.0839 
     98 H98        21.0040  -29.4686  -38.2303 H         1 UNK         0.0839 
     99 H99        21.1005  -27.7303  -38.4567 H         1 UNK         0.0839 
    100 H100       23.8544  -29.6035  -41.7530 H         1 UNK         0.2998 
    101 H101       25.3669  -31.6819  -40.5197 H         1 UNK         0.0822 
    102 H102       26.2006  -32.0524  -42.8499 H         1 UNK         0.0787 
    103 H103       24.9613  -30.9757  -43.4781 H         1 UNK         0.0787 
    104 H104       26.2297  -30.3486  -42.4240 H         1 UNK         0.0787 
    105 H105       24.7620  -33.6699  -40.0727 H         1 UNK         0.3055 
    106 H106       23.8697  -35.6781  -40.0169 H         1 UNK         0.1106 
    107 H107       24.7837  -35.8568  -42.3486 H         1 UNK         0.0828 
    108 H108       23.3761  -36.8736  -42.1037 H         1 UNK         0.0828 
    109 H109       23.2164  -35.3674  -42.9917 H         1 UNK         0.0828 
    110 H110       22.0184  -33.2517  -39.6171 H         1 UNK         0.2931 
    111 H111       19.3869  -34.3260  -40.1946 H         1 UNK         0.0412 
    112 H112       20.3626  -35.8587  -36.6043 H         1 UNK         0.3472 
    113 H113       21.5760  -35.2033  -37.6753 H         1 UNK         0.3472 
    114 H114       18.4884  -32.3781  -38.9842 H         1 UNK         0.0970 
    115 H115       20.0743  -31.9807  -38.3762 H         1 UNK         0.0970 
    116 H116       18.5855  -32.9812  -41.9653 H         1 UNK         0.0612 
    117 H117       17.5752  -31.7005  -41.3240 H         1 UNK         0.0612 
@<TRIPOS>BOND
     1    1    2 1    
     2    1   62 1    
     3    1   63 1    
     4    1   64 1    
     5    2    3 2    
     6    2    4 am   BACKBONE|DICT|INTERRES
     7    4    5 1    
     8    4   65 1    
     9    5    6 1    
    10    5   25 1    
    11    5   66 1    
    12    6    7 1    
    13    6   67 1    
    14    6   68 1    
    15    7    8 1    
    16    8    9 1    
    17    8   69 1    
    18    8   70 1    
    19    9   10 ar   
    20    9   14 ar   
    21   10   11 ar   
    22   10   71 1    
    23   11   12 ar   
    24   11   61 1    
    25   12   13 ar   
    26   12   72 1    
    27   13   14 ar   
    28   13   15 1    
    29   14   73 1    
    30   15   16 1    
    31   15   74 1    
    32   15   75 1    
    33   16   17 1    
    34   17   18 1    
    35   17   76 1    
    36   17   77 1    
    37   18   19 1    
    38   18   27 1    
    39   18   78 1    
    40   19   20 am   BACKBONE|DICT|INTERRES
    41   19   79 1    
    42   20   21 2    
    43   20   22 1    
    44   22   23 1    
    45   22   24 1    
    46   22   80 1    
    47   23   81 1    
    48   23   82 1    
    49   23   83 1    
    50   24   25 am   BACKBONE|DICT|INTERRES
    51   24   84 1    
    52   25   26 2    
    53   27   28 2    
    54   27   29 am   BACKBONE|DICT|INTERRES
    55   29   30 1    
    56   29   85 1    
    57   30   31 1    
    58   30   32 1    
    59   30   86 1    
    60   31   87 1    
    61   31   88 1    
    62   31   89 1    
    63   32   33 2    
    64   32   34 am   BACKBONE|DICT|INTERRES
    65   34   35 1    
    66   34   90 1    
    67   35   36 1    
    68   35   37 1    
    69   35   91 1    
    70   36   92 1    
    71   36   93 1    
    72   36   94 1    
    73   37   38 2    
    74   37   39 am   BACKBONE|DICT|INTERRES
    75   39   40 1    
    76   39   95 1    
    77   40   41 1    
    78   40   42 1    
    79   40   96 1    
    80   41   97 1    
    81   41   98 1    
    82   41   99 1    
    83   42   43 2    
    84   42   44 am   BACKBONE|DICT|INTERRES
    85   44   45 1    
    86   44  100 1    
    87   45   46 1    
    88   45   47 1    
    89   45  101 1    
    90   46  102 1    
    91   46  103 1    
    92   46  104 1    
    93   47   48 2    
    94   47   49 am   BACKBONE|DICT|INTERRES
    95   49   50 1    
    96   49  105 1    
    97   50   51 1    
    98   50   52 1    
    99   50  106 1    
   100   51  107 1    
   101   51  108 1    
   102   51  109 1    
   103   52   53 2    
   104   52   54 am   BACKBONE|DICT|INTERRES
   105   54   55 1    
   106   54  110 1    
   107   55   56 1    
   108   55   59 1    
   109   55  111 1    
   110   56   57 am   BACKBONE|DICT|INTERRES
   111   56   58 2    
   112   57  112 1    
   113   57  113 1    
   114   59   60 1    
   115   59  114 1    
   116   59  115 1    
   117   60   61 1    
   118   61  116 1    
   119   61  117 1    
@<TRIPOS>SUBSTRUCTURE
     1 UNK         1 GROUP             0       ****    0 ROOT    
