@<TRIPOS>MOLECULE
3R8
117   119    1
SMALL
USER_CHARGES


@<TRIPOS>ATOM
      1 CA         16.0120  -26.5293  -38.5467 C.3       0 UNK        -0.2013 
      2 C          16.7287  -26.2104  -39.8502 C.2       0 UNK         0.4866 
      3 O          17.7311  -25.4955  -39.8393 O.2       0 UNK        -0.5176 
      4 N          16.2187  -26.7296  -40.9735 N.am      1 UNK        -0.4884 
      5 CA         16.8329  -26.6321  -42.3017 C.3       1 UNK         0.0853 
      6 C6         15.8241  -26.9647  -43.4314 C.3       10 UNK        -0.0849 
      7 S7         14.9151  -28.5322  -43.1854 S.3       10 UNK        -0.2776 
      8 C8         14.9962  -29.2800  -44.8450 C.3       10 UNK         0.0316 
      9 C9         16.4042  -29.6828  -45.2716 C.ar      10 UNK        -0.0863 
     10 C10        17.2225  -30.4412  -44.4283 C.ar      10 UNK        -0.1009 
     11 C11        18.4829  -30.8734  -44.8537 C.ar      10 UNK        -0.0712 
     12 C12        18.9251  -30.5409  -46.1369 C.ar      10 UNK        -0.0894 
     13 C13        18.1266  -29.7648  -46.9820 C.ar      10 UNK        -0.0745 
     14 C14        16.8697  -29.3384  -46.5436 C.ar      10 UNK        -0.0972 
     15 C15        18.6023  -29.4028  -48.3800 C.3       10 UNK         0.0209 
     16 S16        19.5395  -27.8435  -48.3848 S.3       10 UNK        -0.2568 
     17 C17        21.2107  -28.4098  -47.9256 C.3       10 UNK        -0.0983 
     18 CA         21.7931  -27.6412  -46.7160 C.3       3 UNK         0.0876 
     19 N          20.9996  -27.8080  -45.4840 N.am      3 UNK        -0.4424 
     20 C          21.2101  -27.0926  -44.3701 C.2       2 UNK         0.4918 
     21 O          21.9931  -26.1436  -44.3149 O.2       2 UNK        -0.4875 
     22 CA         20.4760  -27.5370  -43.1022 C.3       2 UNK         0.0481 
     23 CB         21.2353  -27.1057  -41.8281 C.3       2 UNK        -0.1831 
     24 N          19.1325  -26.9721  -43.0835 N.am      2 UNK        -0.4498 
     25 C          18.1181  -27.4845  -42.3762 C.2       1 UNK         0.5027 
     26 O          18.1790  -28.5626  -41.7775 O.2       1 UNK        -0.4969 
     27 C          23.2804  -28.0190  -46.5118 C.2       3 UNK         0.5005 
     28 O          24.1434  -27.4921  -47.2150 O.2       3 UNK        -0.5279 
     29 N          23.5548  -28.8944  -45.5313 N.am      4 UNK        -0.4463 
     30 CA         24.8945  -29.2585  -45.0627 C.3       4 UNK         0.0283 
     31 CB         24.7907  -30.5396  -44.2175 C.3       4 UNK        -0.1875 
     32 C          25.5936  -28.1478  -44.2529 C.2       4 UNK         0.4949 
     33 O          26.7967  -28.2579  -44.0168 O.2       4 UNK        -0.5039 
     34 N          24.8405  -27.1257  -43.8144 N.am      5 UNK        -0.4663 
     35 CA         25.2314  -25.9310  -43.0490 C.3       5 UNK         0.0242 
     36 CB         26.2367  -25.0710  -43.8387 C.3       5 UNK        -0.1982 
     37 C          25.7359  -26.1880  -41.6164 C.2       5 UNK         0.5017 
     38 O          25.3996  -25.4137  -40.7203 O.2       5 UNK        -0.5012 
     39 N          26.5314  -27.2464  -41.4213 N.am      6 UNK        -0.4439 
     40 CA         27.1541  -27.6265  -40.1509 C.3       6 UNK         0.0297 
     41 CB         28.1789  -28.7440  -40.4036 C.3       6 UNK        -0.2006 
     42 C          26.1504  -28.0539  -39.0661 C.2       6 UNK         0.4892 
     43 O          26.3773  -27.7609  -37.8916 O.2       6 UNK        -0.5089 
     44 N          25.0699  -28.7307  -39.4712 N.am      7 UNK        -0.4243 
     45 CA         23.9938  -29.2112  -38.6096 C.3       7 UNK         0.0196 
     46 CB         24.4587  -30.4388  -37.8011 C.3       7 UNK        -0.2007 
     47 C          22.7866  -29.5701  -39.4801 C.2       7 UNK         0.5020 
     48 O          22.9530  -29.8537  -40.6696 O.2       7 UNK        -0.5147 
     49 N          21.5982  -29.5754  -38.8655 N.am      8 UNK        -0.4734 
     50 CA         20.3606  -30.0639  -39.4758 C.3       8 UNK         0.0238 
     51 CB         19.1553  -29.5015  -38.7041 C.3       8 UNK        -0.1912 
     52 C          20.3366  -31.6001  -39.4894 C.2       8 UNK         0.5038 
     53 O          20.8214  -32.2271  -38.5439 O.2       8 UNK        -0.5046 
     54 N          19.7660  -32.1694  -40.5546 N.am      9 UNK        -0.4200 
     55 CA         19.6839  -33.6183  -40.7939 C.3       9 UNK         0.0839 
     56 C          18.4557  -34.3186  -40.1420 C.2       9 UNK         0.5513 
     57 N          17.5490  -33.6022  -39.4880 N.am      9 UNK        -0.7519 
     58 O          18.3345  -35.5388  -40.2146 O.2       9 UNK        -0.4960 
     59 C59        19.8429  -33.9475  -42.3028 C.3       10 UNK        -0.0876 
     60 S60        18.5535  -33.2191  -43.3721 S.3       10 UNK        -0.2414 
     61 C61        19.3706  -31.6876  -43.9244 C.3       10 UNK         0.0169 
     62 H62        15.7079  -25.6078  -38.0497 H         1 UNK         0.0903 
     63 H63        15.1215  -27.1375  -38.7094 H         1 UNK         0.0903 
     64 H64        16.6783  -27.0749  -37.8777 H         1 UNK         0.0903 
     65 H65        15.4162  -27.3421  -40.9260 H         1 UNK         0.3096 
     66 H66        17.1325  -25.5899  -42.4345 H         1 UNK         0.1121 
     67 H67        15.0816  -26.1677  -43.4930 H         1 UNK         0.0849 
     68 H68        16.3244  -26.9674  -44.4017 H         1 UNK         0.0849 
     69 H69        14.3663  -30.1703  -44.8557 H         1 UNK         0.0865 
     70 H70        14.5544  -28.5860  -45.5619 H         1 UNK         0.0865 
     71 H71        16.8742  -30.7055  -43.4390 H         1 UNK         0.1346 
     72 H72        19.8892  -30.8900  -46.4787 H         1 UNK         0.1412 
     73 H73        16.2460  -28.7525  -47.2052 H         1 UNK         0.1426 
     74 H74        17.7434  -29.2922  -49.0439 H         1 UNK         0.0716 
     75 H75        19.2044  -30.2077  -48.8043 H         1 UNK         0.0716 
     76 H76        21.8423  -28.2652  -48.8047 H         1 UNK         0.0695 
     77 H77        21.2117  -29.4833  -47.7353 H         1 UNK         0.0695 
     78 H78        21.7808  -26.5773  -46.9649 H         1 UNK         0.0983 
     79 H79        20.2890  -28.5266  -45.4922 H         1 UNK         0.3095 
     80 H80        20.4177  -28.6275  -43.1195 H         1 UNK         0.0454 
     81 H81        22.2510  -27.5020  -41.8238 H         1 UNK         0.0851 
     82 H82        20.7431  -27.4594  -40.9235 H         1 UNK         0.0851 
     83 H83        21.3105  -26.0204  -41.7501 H         1 UNK         0.0851 
     84 H84        19.0133  -26.0990  -43.5798 H         1 UNK         0.2976 
     85 H85        22.7794  -29.2962  -45.0256 H         1 UNK         0.3116 
     86 H86        25.5179  -29.4695  -45.9341 H         1 UNK         0.0646 
     87 H87        24.3579  -31.3605  -44.7894 H         1 UNK         0.0847 
     88 H88        24.1791  -30.3899  -43.3262 H         1 UNK         0.0847 
     89 H89        25.7758  -30.8678  -43.8824 H         1 UNK         0.0847 
     90 H90        23.8610  -27.1343  -44.0716 H         1 UNK         0.3040 
     91 H91        24.3164  -25.3447  -42.9454 H         1 UNK         0.1015 
     92 H92        26.4458  -24.1372  -43.3148 H         1 UNK         0.0786 
     93 H93        25.8460  -24.8099  -44.8223 H         1 UNK         0.0786 
     94 H94        27.1894  -25.5819  -43.9810 H         1 UNK         0.0786 
     95 H95        26.7727  -27.7918  -42.2467 H         1 UNK         0.3172 
     96 H96        27.6912  -26.7532  -39.7746 H         1 UNK         0.0595 
     97 H97        27.7088  -29.6382  -40.8153 H         1 UNK         0.0839 
     98 H98        28.6770  -29.0341  -39.4774 H         1 UNK         0.0839 
     99 H99        28.9541  -28.4223  -41.0995 H         1 UNK         0.0839 
    100 H100       24.9294  -28.9148  -40.4568 H         1 UNK         0.2998 
    101 H101       23.7041  -28.4080  -37.9288 H         1 UNK         0.0822 
    102 H102       25.2825  -30.1912  -37.1320 H         1 UNK         0.0787 
    103 H103       24.7902  -31.2460  -38.4553 H         1 UNK         0.0787 
    104 H104       23.6510  -30.8324  -37.1826 H         1 UNK         0.0787 
    105 H105       21.5614  -29.3768  -37.8760 H         1 UNK         0.3055 
    106 H106       20.3118  -29.7076  -40.5069 H         1 UNK         0.1106 
    107 H107       19.1460  -29.8328  -37.6650 H         1 UNK         0.0828 
    108 H108       19.1553  -28.4112  -38.7128 H         1 UNK         0.0828 
    109 H109       18.2173  -29.8220  -39.1596 H         1 UNK         0.0828 
    110 H110       19.3336  -31.5869  -41.2561 H         1 UNK         0.2931 
    111 H111       20.5459  -34.0753  -40.3037 H         1 UNK         0.0412 
    112 H112       17.6418  -32.6024  -39.4155 H         1 UNK         0.3472 
    113 H113       16.7623  -34.0691  -39.0647 H         1 UNK         0.3472 
    114 H114       20.8234  -33.6163  -42.6480 H         1 UNK         0.0970 
    115 H115       19.8391  -35.0284  -42.4554 H         1 UNK         0.0970 
    116 H116       20.3101  -31.9462  -44.4152 H         1 UNK         0.0612 
    117 H117       19.6273  -31.0702  -43.0639 H         1 UNK         0.0612 
@<TRIPOS>BOND
     1    1    2 1    
     2    1   62 1    
     3    1   63 1    
     4    1   64 1    
     5    2    3 2    
     6    2    4 am   BACKBONE|DICT|INTERRES
     7    4    5 1    
     8    4   65 1    
     9    5    6 1    
    10    5   25 1    
    11    5   66 1    
    12    6    7 1    
    13    6   67 1    
    14    6   68 1    
    15    7    8 1    
    16    8    9 1    
    17    8   69 1    
    18    8   70 1    
    19    9   10 ar   
    20    9   14 ar   
    21   10   11 ar   
    22   10   71 1    
    23   11   12 ar   
    24   11   61 1    
    25   12   13 ar   
    26   12   72 1    
    27   13   14 ar   
    28   13   15 1    
    29   14   73 1    
    30   15   16 1    
    31   15   74 1    
    32   15   75 1    
    33   16   17 1    
    34   17   18 1    
    35   17   76 1    
    36   17   77 1    
    37   18   19 1    
    38   18   27 1    
    39   18   78 1    
    40   19   20 am   BACKBONE|DICT|INTERRES
    41   19   79 1    
    42   20   21 2    
    43   20   22 1    
    44   22   23 1    
    45   22   24 1    
    46   22   80 1    
    47   23   81 1    
    48   23   82 1    
    49   23   83 1    
    50   24   25 am   BACKBONE|DICT|INTERRES
    51   24   84 1    
    52   25   26 2    
    53   27   28 2    
    54   27   29 am   BACKBONE|DICT|INTERRES
    55   29   30 1    
    56   29   85 1    
    57   30   31 1    
    58   30   32 1    
    59   30   86 1    
    60   31   87 1    
    61   31   88 1    
    62   31   89 1    
    63   32   33 2    
    64   32   34 am   BACKBONE|DICT|INTERRES
    65   34   35 1    
    66   34   90 1    
    67   35   36 1    
    68   35   37 1    
    69   35   91 1    
    70   36   92 1    
    71   36   93 1    
    72   36   94 1    
    73   37   38 2    
    74   37   39 am   BACKBONE|DICT|INTERRES
    75   39   40 1    
    76   39   95 1    
    77   40   41 1    
    78   40   42 1    
    79   40   96 1    
    80   41   97 1    
    81   41   98 1    
    82   41   99 1    
    83   42   43 2    
    84   42   44 am   BACKBONE|DICT|INTERRES
    85   44   45 1    
    86   44  100 1    
    87   45   46 1    
    88   45   47 1    
    89   45  101 1    
    90   46  102 1    
    91   46  103 1    
    92   46  104 1    
    93   47   48 2    
    94   47   49 am   BACKBONE|DICT|INTERRES
    95   49   50 1    
    96   49  105 1    
    97   50   51 1    
    98   50   52 1    
    99   50  106 1    
   100   51  107 1    
   101   51  108 1    
   102   51  109 1    
   103   52   53 2    
   104   52   54 am   BACKBONE|DICT|INTERRES
   105   54   55 1    
   106   54  110 1    
   107   55   56 1    
   108   55   59 1    
   109   55  111 1    
   110   56   57 am   BACKBONE|DICT|INTERRES
   111   56   58 2    
   112   57  112 1    
   113   57  113 1    
   114   59   60 1    
   115   59  114 1    
   116   59  115 1    
   117   60   61 1    
   118   61  116 1    
   119   61  117 1    
@<TRIPOS>SUBSTRUCTURE
     1 UNK         1 GROUP             0       ****    0 ROOT    
