@<TRIPOS>MOLECULE
3R8
117   119    1
SMALL
USER_CHARGES


@<TRIPOS>ATOM
      1 CA         13.3145  -24.4310  -47.7489 C.3       0 UNK        -0.2013 
      2 C          14.2801  -25.6061  -47.7774 C.2       0 UNK         0.4866 
      3 O          14.8414  -25.9127  -48.8293 O.2       0 UNK        -0.5176 
      4 N          14.4786  -26.2671  -46.6295 N.am      1 UNK        -0.4884 
      5 CA         15.3840  -27.4128  -46.4627 C.3       1 UNK         0.0853 
      6 C6         15.0180  -28.2618  -45.2202 C.3       10 UNK        -0.0849 
      7 S7         14.8983  -27.3049  -43.6680 S.3       10 UNK        -0.2776 
      8 C8         15.1768  -28.6099  -42.4310 C.3       10 UNK         0.0316 
      9 C9         16.6492  -28.7381  -42.0704 C.ar      10 UNK        -0.0863 
     10 C10        17.4744  -29.6495  -42.7360 C.ar      10 UNK        -0.1009 
     11 C11        18.8196  -29.7816  -42.3766 C.ar      10 UNK        -0.0712 
     12 C12        19.3353  -29.0050  -41.3340 C.ar      10 UNK        -0.0894 
     13 C13        18.5214  -28.0810  -40.6702 C.ar      10 UNK        -0.0745 
     14 C14        17.1811  -27.9525  -41.0449 C.ar      10 UNK        -0.0972 
     15 C15        19.0750  -27.2264  -39.5374 C.3       10 UNK         0.0209 
     16 S16        20.4192  -26.1191  -40.0714 S.3       10 UNK        -0.2568 
     17 C17        19.6744  -25.2092  -41.4714 C.3       10 UNK        -0.0983 
     18 CA         20.2306  -25.6836  -42.8398 C.3       3 UNK         0.0876 
     19 N          19.3407  -25.3038  -43.9418 N.am      3 UNK        -0.4424 
     20 C          19.4724  -25.7287  -45.2056 C.2       2 UNK         0.4918 
     21 O          20.3051  -26.5627  -45.5677 O.2       2 UNK        -0.4875 
     22 CA         18.5033  -25.1051  -46.2268 C.3       2 UNK         0.0481 
     23 CB         19.0869  -25.0855  -47.6554 C.3       2 UNK        -0.1831 
     24 N          17.1827  -25.7439  -46.2128 N.am      2 UNK        -0.4498 
     25 C          16.8800  -27.0263  -46.4787 C.2       1 UNK         0.5027 
     26 O          17.7089  -27.8930  -46.7582 O.2       1 UNK        -0.4969 
     27 C          21.6751  -25.1814  -43.0767 C.2       3 UNK         0.5005 
     28 O          21.8764  -24.1312  -43.6944 O.2       3 UNK        -0.5279 
     29 N          22.6462  -25.9367  -42.5587 N.am      4 UNK        -0.4463 
     30 CA         24.0794  -25.6742  -42.6115 C.3       4 UNK         0.0283 
     31 CB         24.6593  -26.2490  -43.9180 C.3       4 UNK        -0.1875 
     32 C          24.7225  -26.3180  -41.3761 C.2       4 UNK         0.4949 
     33 O          24.0398  -27.0224  -40.6258 O.2       4 UNK        -0.5039 
     34 N          26.0308  -26.0991  -41.1924 N.am      5 UNK        -0.4663 
     35 CA         26.8475  -26.6390  -40.0956 C.3       5 UNK         0.0242 
     36 CB         28.1364  -25.8027  -39.9816 C.3       5 UNK        -0.1982 
     37 C          27.1321  -28.1532  -40.2308 C.2       5 UNK         0.5017 
     38 O          28.2889  -28.5760  -40.1879 O.2       5 UNK        -0.5012 
     39 N          26.0657  -28.9387  -40.3974 N.am      6 UNK        -0.4439 
     40 CA         26.0517  -30.3877  -40.5377 C.3       6 UNK         0.0297 
     41 CB         26.4412  -30.7930  -41.9738 C.3       6 UNK        -0.2006 
     42 C          24.6442  -30.8546  -40.1567 C.2       6 UNK         0.4892 
     43 O          23.7941  -31.0179  -41.0325 O.2       6 UNK        -0.5089 
     44 N          24.4109  -31.0292  -38.8486 N.am      7 UNK        -0.4243 
     45 CA         23.1147  -31.3961  -38.2588 C.3       7 UNK         0.0196 
     46 CB         23.2298  -31.3515  -36.7262 C.3       7 UNK        -0.2007 
     47 C          22.5568  -32.7585  -38.7164 C.2       7 UNK         0.5020 
     48 O          21.3477  -32.9724  -38.6348 O.2       7 UNK        -0.5147 
     49 N          23.4355  -33.6465  -39.2007 N.am      8 UNK        -0.4734 
     50 CA         23.0781  -34.9243  -39.8233 C.3       8 UNK         0.0238 
     51 CB         24.3072  -35.8490  -39.7939 C.3       8 UNK        -0.1912 
     52 C          22.5443  -34.7814  -41.2638 C.2       8 UNK         0.5038 
     53 O          22.0294  -35.7633  -41.8005 O.2       8 UNK        -0.5046 
     54 N          22.6898  -33.5916  -41.8670 N.am      9 UNK        -0.4200 
     55 CA         22.2853  -33.2443  -43.2405 C.3       9 UNK         0.0839 
     56 C          23.1154  -33.9458  -44.3584 C.2       9 UNK         0.5513 
     57 N          24.2831  -34.5049  -44.0631 N.am      9 UNK        -0.7519 
     58 O          22.7144  -33.9588  -45.5196 O.2       9 UNK        -0.4960 
     59 C59        20.7497  -33.3405  -43.4803 C.3       10 UNK        -0.0876 
     60 S60        19.7684  -32.3709  -42.2844 S.3       10 UNK        -0.2414 
     61 C61        19.7156  -30.7584  -43.1208 C.3       10 UNK         0.0169 
     62 H62        12.4938  -24.6032  -48.4447 H         1 UNK         0.0903 
     63 H63        12.8906  -24.2748  -46.7570 H         1 UNK         0.0903 
     64 H64        13.8273  -23.5167  -48.0464 H         1 UNK         0.0903 
     65 H65        13.9912  -25.9810  -45.7907 H         1 UNK         0.3096 
     66 H66        15.2461  -28.0577  -47.3341 H         1 UNK         0.1121 
     67 H67        14.0519  -28.7414  -45.3853 H         1 UNK         0.0849 
     68 H68        15.7299  -29.0797  -45.0977 H         1 UNK         0.0849 
     69 H69        14.6010  -28.3692  -41.5359 H         1 UNK         0.0865 
     70 H70        14.7829  -29.5622  -42.7897 H         1 UNK         0.0865 
     71 H71        17.0714  -30.2620  -43.5306 H         1 UNK         0.1346 
     72 H72        20.3724  -29.1121  -41.0455 H         1 UNK         0.1412 
     73 H73        16.5445  -27.2436  -40.5327 H         1 UNK         0.1426 
     74 H74        19.4508  -27.8809  -38.7498 H         1 UNK         0.0716 
     75 H75        18.2873  -26.6231  -39.0834 H         1 UNK         0.0716 
     76 H76        19.8426  -24.1400  -41.3285 H         1 UNK         0.0695 
     77 H77        18.5924  -25.3441  -41.4344 H         1 UNK         0.0695 
     78 H78        20.2549  -26.7755  -42.8423 H         1 UNK         0.0983 
     79 H79        18.6419  -24.6066  -43.7329 H         1 UNK         0.3095 
     80 H80        18.3461  -24.0665  -45.9314 H         1 UNK         0.0454 
     81 H81        19.2707  -26.0898  -48.0383 H         1 UNK         0.0851 
     82 H82        20.0384  -24.5530  -47.6778 H         1 UNK         0.0851 
     83 H83        18.4158  -24.5813  -48.3506 H         1 UNK         0.0851 
     84 H84        16.4078  -25.1394  -45.9786 H         1 UNK         0.2976 
     85 H85        22.4020  -26.7127  -41.9532 H         1 UNK         0.3116 
     86 H86        24.2573  -24.5978  -42.5660 H         1 UNK         0.0646 
     87 H87        24.5347  -27.3315  -43.9707 H         1 UNK         0.0847 
     88 H88        25.7252  -26.0375  -44.0087 H         1 UNK         0.0847 
     89 H89        24.1726  -25.8154  -44.7919 H         1 UNK         0.0847 
     90 H90        26.5214  -25.5350  -41.8720 H         1 UNK         0.3040 
     91 H91        26.2908  -26.5113  -39.1642 H         1 UNK         0.1015 
     92 H92        28.7505  -25.8832  -40.8795 H         1 UNK         0.0786 
     93 H93        28.7453  -26.1331  -39.1388 H         1 UNK         0.0786 
     94 H94        27.9130  -24.7479  -39.8200 H         1 UNK         0.0786 
     95 H95        25.1544  -28.4813  -40.4202 H         1 UNK         0.3172 
     96 H96        26.7658  -30.8300  -39.8398 H         1 UNK         0.0595 
     97 H97        26.3693  -31.8731  -42.1077 H         1 UNK         0.0839 
     98 H98        27.4673  -30.5060  -42.2034 H         1 UNK         0.0839 
     99 H99        25.7911  -30.3275  -42.7159 H         1 UNK         0.0839 
    100 H100       25.1659  -30.8569  -38.1997 H         1 UNK         0.2998 
    101 H101       22.3915  -30.6386  -38.5693 H         1 UNK         0.0822 
    102 H102       22.2746  -31.5892  -36.2554 H         1 UNK         0.0787 
    103 H103       23.9629  -32.0692  -36.3557 H         1 UNK         0.0787 
    104 H104       23.5213  -30.3605  -36.3777 H         1 UNK         0.0787 
    105 H105       24.4125  -33.3917  -39.2084 H         1 UNK         0.3055 
    106 H106       22.2845  -35.3893  -39.2338 H         1 UNK         0.1106 
    107 H107       24.0720  -36.8262  -40.2184 H         1 UNK         0.0828 
    108 H108       25.1386  -35.4372  -40.3673 H         1 UNK         0.0828 
    109 H109       24.6526  -36.0181  -38.7738 H         1 UNK         0.0828 
    110 H110       23.1133  -32.8271  -41.3510 H         1 UNK         0.2931 
    111 H111       22.5493  -32.1912  -43.3422 H         1 UNK         0.0412 
    112 H112       24.8181  -34.9470  -44.7942 H         1 UNK         0.3472 
    113 H113       24.6308  -34.4923  -43.1183 H         1 UNK         0.3472 
    114 H114       20.4222  -34.3797  -43.4262 H         1 UNK         0.0970 
    115 H115       20.4947  -33.0057  -44.4872 H         1 UNK         0.0970 
    116 H116       19.3571  -30.8868  -44.1433 H         1 UNK         0.0612 
    117 H117       20.7274  -30.3563  -43.1943 H         1 UNK         0.0612 
@<TRIPOS>BOND
     1    1    2 1    
     2    1   62 1    
     3    1   63 1    
     4    1   64 1    
     5    2    3 2    
     6    2    4 am   BACKBONE|DICT|INTERRES
     7    4    5 1    
     8    4   65 1    
     9    5    6 1    
    10    5   25 1    
    11    5   66 1    
    12    6    7 1    
    13    6   67 1    
    14    6   68 1    
    15    7    8 1    
    16    8    9 1    
    17    8   69 1    
    18    8   70 1    
    19    9   10 ar   
    20    9   14 ar   
    21   10   11 ar   
    22   10   71 1    
    23   11   12 ar   
    24   11   61 1    
    25   12   13 ar   
    26   12   72 1    
    27   13   14 ar   
    28   13   15 1    
    29   14   73 1    
    30   15   16 1    
    31   15   74 1    
    32   15   75 1    
    33   16   17 1    
    34   17   18 1    
    35   17   76 1    
    36   17   77 1    
    37   18   19 1    
    38   18   27 1    
    39   18   78 1    
    40   19   20 am   BACKBONE|DICT|INTERRES
    41   19   79 1    
    42   20   21 2    
    43   20   22 1    
    44   22   23 1    
    45   22   24 1    
    46   22   80 1    
    47   23   81 1    
    48   23   82 1    
    49   23   83 1    
    50   24   25 am   BACKBONE|DICT|INTERRES
    51   24   84 1    
    52   25   26 2    
    53   27   28 2    
    54   27   29 am   BACKBONE|DICT|INTERRES
    55   29   30 1    
    56   29   85 1    
    57   30   31 1    
    58   30   32 1    
    59   30   86 1    
    60   31   87 1    
    61   31   88 1    
    62   31   89 1    
    63   32   33 2    
    64   32   34 am   BACKBONE|DICT|INTERRES
    65   34   35 1    
    66   34   90 1    
    67   35   36 1    
    68   35   37 1    
    69   35   91 1    
    70   36   92 1    
    71   36   93 1    
    72   36   94 1    
    73   37   38 2    
    74   37   39 am   BACKBONE|DICT|INTERRES
    75   39   40 1    
    76   39   95 1    
    77   40   41 1    
    78   40   42 1    
    79   40   96 1    
    80   41   97 1    
    81   41   98 1    
    82   41   99 1    
    83   42   43 2    
    84   42   44 am   BACKBONE|DICT|INTERRES
    85   44   45 1    
    86   44  100 1    
    87   45   46 1    
    88   45   47 1    
    89   45  101 1    
    90   46  102 1    
    91   46  103 1    
    92   46  104 1    
    93   47   48 2    
    94   47   49 am   BACKBONE|DICT|INTERRES
    95   49   50 1    
    96   49  105 1    
    97   50   51 1    
    98   50   52 1    
    99   50  106 1    
   100   51  107 1    
   101   51  108 1    
   102   51  109 1    
   103   52   53 2    
   104   52   54 am   BACKBONE|DICT|INTERRES
   105   54   55 1    
   106   54  110 1    
   107   55   56 1    
   108   55   59 1    
   109   55  111 1    
   110   56   57 am   BACKBONE|DICT|INTERRES
   111   56   58 2    
   112   57  112 1    
   113   57  113 1    
   114   59   60 1    
   115   59  114 1    
   116   59  115 1    
   117   60   61 1    
   118   61  116 1    
   119   61  117 1    
@<TRIPOS>SUBSTRUCTURE
     1 UNK         1 GROUP             0       ****    0 ROOT    
