@<TRIPOS>MOLECULE
3R8
117   119    1
SMALL
USER_CHARGES


@<TRIPOS>ATOM
      1 CA         17.3731  -27.5661  -42.1512 C.3       0 UNK        -0.2013 
      2 C          16.6564  -27.2069  -43.4423 C.2       0 UNK         0.4866 
      3 O          15.5680  -26.6328  -43.3953 O.2       0 UNK        -0.5176 
      4 N          17.2506  -27.5421  -44.5958 N.am      1 UNK        -0.4884 
      5 CA         16.6845  -27.2706  -45.9265 C.3       1 UNK         0.0853 
      6 C6         17.3350  -28.1384  -47.0323 C.3       10 UNK        -0.0849 
      7 S7         17.1203  -29.9256  -46.7203 S.3       10 UNK        -0.2776 
      8 C8         18.8364  -30.5423  -46.7408 C.3       10 UNK         0.0316 
      9 C9         19.6829  -29.9507  -45.6221 C.ar      10 UNK        -0.0863 
     10 C10        19.4301  -30.2935  -44.2899 C.ar      10 UNK        -0.1009 
     11 C11        20.2012  -29.7466  -43.2608 C.ar      10 UNK        -0.0712 
     12 C12        21.2271  -28.8512  -43.5728 C.ar      10 UNK        -0.0894 
     13 C13        21.5162  -28.5293  -44.9002 C.ar      10 UNK        -0.0745 
     14 C14        20.7362  -29.0801  -45.9214 C.ar      10 UNK        -0.0972 
     15 C15        22.7077  -27.6414  -45.2334 C.3       10 UNK         0.0209 
     16 S16        22.2189  -26.1014  -46.0653 S.3       10 UNK        -0.2568 
     17 C17        22.5969  -24.8067  -44.8228 C.3       10 UNK        -0.0983 
     18 CA         21.3557  -24.1538  -44.1547 C.3       3 UNK         0.0876 
     19 N          20.2468  -24.0194  -45.0971 N.am      3 UNK        -0.4424 
     20 C          19.1465  -23.2780  -44.9303 C.2       2 UNK         0.4918 
     21 O          19.0065  -22.4215  -44.0574 O.2       2 UNK        -0.4875 
     22 CA         17.9858  -23.6259  -45.8661 C.3       2 UNK         0.0481 
     23 CB         18.3013  -23.2112  -47.3184 C.3       2 UNK        -0.1831 
     24 N          17.7395  -25.0635  -45.7403 N.am      2 UNK        -0.4498 
     25 C          16.7531  -25.7739  -46.2998 C.2       1 UNK         0.5027 
     26 O          15.9133  -25.3027  -47.0680 O.2       1 UNK        -0.4969 
     27 C          20.8907  -24.9195  -42.8982 C.2       3 UNK         0.5005 
     28 O          20.0173  -25.7841  -42.9991 O.2       3 UNK        -0.5279 
     29 N          21.4535  -24.5605  -41.7364 N.am      4 UNK        -0.4463 
     30 CA         21.0089  -25.0437  -40.4258 C.3       4 UNK         0.0283 
     31 CB         21.5087  -24.0861  -39.3321 C.3       4 UNK        -0.1875 
     32 C          21.4381  -26.4839  -40.1065 C.2       4 UNK         0.4949 
     33 O          20.6804  -27.1998  -39.4516 O.2       4 UNK        -0.5039 
     34 N          22.6382  -26.8804  -40.5465 N.am      5 UNK        -0.4663 
     35 CA         23.2138  -28.2003  -40.2992 C.3       5 UNK         0.0242 
     36 CB         23.8487  -28.2536  -38.8977 C.3       5 UNK        -0.1982 
     37 C          24.2480  -28.5226  -41.3812 C.2       5 UNK         0.5017 
     38 O          24.9088  -27.6073  -41.8772 O.2       5 UNK        -0.5012 
     39 N          24.3728  -29.8134  -41.7070 N.am      6 UNK        -0.4439 
     40 CA         25.3560  -30.3731  -42.6317 C.3       6 UNK         0.0297 
     41 CB         25.0854  -29.9533  -44.0905 C.3       6 UNK        -0.2006 
     42 C          25.3662  -31.8947  -42.4695 C.2       6 UNK         0.4892 
     43 O          26.3106  -32.4417  -41.9000 O.2       6 UNK        -0.5089 
     44 N          24.2931  -32.5511  -42.9302 N.am      7 UNK        -0.4243 
     45 CA         24.0947  -34.0030  -42.8866 C.3       7 UNK         0.0196 
     46 CB         23.1171  -34.3959  -44.0096 C.3       7 UNK        -0.2007 
     47 C          23.6198  -34.4757  -41.4989 C.2       7 UNK         0.5020 
     48 O          22.5630  -35.1001  -41.3864 O.2       7 UNK        -0.5147 
     49 N          24.3936  -34.1289  -40.4612 N.am      8 UNK        -0.4734 
     50 CA         24.1421  -34.2881  -39.0210 C.3       8 UNK         0.0238 
     51 CB         23.9815  -35.7674  -38.6181 C.3       8 UNK        -0.1912 
     52 C          22.9713  -33.4264  -38.5168 C.2       8 UNK         0.5038 
     53 O          23.1780  -32.5891  -37.6387 O.2       8 UNK        -0.5046 
     54 N          21.7861  -33.6241  -39.1065 N.am      9 UNK        -0.4200 
     55 CA         20.5536  -32.8436  -38.9051 C.3       9 UNK         0.0839 
     56 C          19.9475  -32.9287  -37.4706 C.2       9 UNK         0.5513 
     57 N          20.2803  -33.9383  -36.6755 N.am      9 UNK        -0.7519 
     58 O          19.1386  -32.0908  -37.0803 O.2       9 UNK        -0.4960 
     59 C59        20.6912  -31.3844  -39.4260 C.3       10 UNK        -0.0876 
     60 S60        21.1420  -31.3208  -41.1971 S.3       10 UNK        -0.2414 
     61 C61        19.9299  -30.1137  -41.8109 C.3       10 UNK         0.0169 
     62 H62        16.9453  -28.4676  -41.7168 H         1 UNK         0.0903 
     63 H63        18.4337  -27.7330  -42.3206 H         1 UNK         0.0903 
     64 H64        17.2800  -26.7573  -41.4287 H         1 UNK         0.0903 
     65 H65        18.1333  -28.0374  -44.5824 H         1 UNK         0.3096 
     66 H66        15.6229  -27.5270  -45.8902 H         1 UNK         0.1121 
     67 H67        16.8816  -27.9209  -48.0015 H         1 UNK         0.0849 
     68 H68        18.3941  -27.8981  -47.1368 H         1 UNK         0.0849 
     69 H69        19.2783  -30.3359  -47.7169 H         1 UNK         0.0865 
     70 H70        18.8217  -31.6284  -46.6390 H         1 UNK         0.0865 
     71 H71        18.6289  -30.9818  -44.0569 H         1 UNK         0.1346 
     72 H72        21.8123  -28.4173  -42.7784 H         1 UNK         0.1412 
     73 H73        20.9575  -28.8315  -46.9506 H         1 UNK         0.1426 
     74 H74        23.3737  -28.1900  -45.9003 H         1 UNK         0.0716 
     75 H75        23.2909  -27.4227  -44.3384 H         1 UNK         0.0716 
     76 H76        23.1421  -24.0290  -45.3595 H         1 UNK         0.0695 
     77 H77        23.3049  -25.1780  -44.0798 H         1 UNK         0.0695 
     78 H78        21.6336  -23.1464  -43.8364 H         1 UNK         0.0983 
     79 H79        20.2633  -24.6957  -45.8471 H         1 UNK         0.3095 
     80 H80        17.0973  -23.0912  -45.5252 H         1 UNK         0.0454 
     81 H81        17.4328  -23.3240  -47.9665 H         1 UNK         0.0851 
     82 H82        19.1133  -23.8006  -47.7450 H         1 UNK         0.0851 
     83 H83        18.5977  -22.1627  -47.3677 H         1 UNK         0.0851 
     84 H84        18.3308  -25.5428  -45.0711 H         1 UNK         0.2976 
     85 H85        22.1693  -23.8475  -41.7366 H         1 UNK         0.3116 
     86 H86        19.9168  -25.0217  -40.4123 H         1 UNK         0.0646 
     87 H87        21.1332  -23.0745  -39.4864 H         1 UNK         0.0847 
     88 H88        22.5977  -24.0405  -39.2987 H         1 UNK         0.0847 
     89 H89        21.1675  -24.4084  -38.3473 H         1 UNK         0.0847 
     90 H90        23.2070  -26.2584  -41.1066 H         1 UNK         0.3040 
     91 H91        22.4157  -28.9400  -40.3511 H         1 UNK         0.1015 
     92 H92        23.1093  -28.0716  -38.1178 H         1 UNK         0.0786 
     93 H93        24.6411  -27.5122  -38.7878 H         1 UNK         0.0786 
     94 H94        24.2860  -29.2335  -38.7020 H         1 UNK         0.0786 
     95 H95        23.7938  -30.4931  -41.2309 H         1 UNK         0.3172 
     96 H96        26.3440  -30.0072  -42.3456 H         1 UNK         0.0595 
     97 H97        24.0569  -30.1523  -44.3903 H         1 UNK         0.0839 
     98 H98        25.7377  -30.4908  -44.7796 H         1 UNK         0.0839 
     99 H99        25.2790  -28.8916  -44.2380 H         1 UNK         0.0839 
    100 H100       23.5411  -32.0147  -43.3386 H         1 UNK         0.2998 
    101 H101       25.0483  -34.4965  -43.0861 H         1 UNK         0.0822 
    102 H102       23.4936  -34.0945  -44.9869 H         1 UNK         0.0787 
    103 H103       22.9699  -35.4760  -44.0405 H         1 UNK         0.0787 
    104 H104       22.1374  -33.9365  -43.8703 H         1 UNK         0.0787 
    105 H105       25.2268  -33.5956  -40.6956 H         1 UNK         0.3055 
    106 H106       25.0382  -33.9142  -38.5226 H         1 UNK         0.1106 
    107 H107       23.0977  -36.2264  -39.0605 H         1 UNK         0.0828 
    108 H108       24.8485  -36.3543  -38.9206 H         1 UNK         0.0828 
    109 H109       23.8870  -35.8653  -37.5361 H         1 UNK         0.0828 
    110 H110       21.7598  -34.3076  -39.8578 H         1 UNK         0.2931 
    111 H111       19.8088  -33.3318  -39.5345 H         1 UNK         0.0412 
    112 H112       20.9332  -34.6387  -36.9883 H         1 UNK         0.3472 
    113 H113       19.8784  -33.9959  -35.7528 H         1 UNK         0.3472 
    114 H114       19.7545  -30.8429  -39.2836 H         1 UNK         0.0970 
    115 H115       21.4397  -30.8381  -38.8503 H         1 UNK         0.0970 
    116 H116       19.9738  -29.2152  -41.1943 H         1 UNK         0.0612 
    117 H117       18.9243  -30.5217  -41.6981 H         1 UNK         0.0612 
@<TRIPOS>BOND
     1    1    2 1    
     2    1   62 1    
     3    1   63 1    
     4    1   64 1    
     5    2    3 2    
     6    2    4 am   BACKBONE|DICT|INTERRES
     7    4    5 1    
     8    4   65 1    
     9    5    6 1    
    10    5   25 1    
    11    5   66 1    
    12    6    7 1    
    13    6   67 1    
    14    6   68 1    
    15    7    8 1    
    16    8    9 1    
    17    8   69 1    
    18    8   70 1    
    19    9   10 ar   
    20    9   14 ar   
    21   10   11 ar   
    22   10   71 1    
    23   11   12 ar   
    24   11   61 1    
    25   12   13 ar   
    26   12   72 1    
    27   13   14 ar   
    28   13   15 1    
    29   14   73 1    
    30   15   16 1    
    31   15   74 1    
    32   15   75 1    
    33   16   17 1    
    34   17   18 1    
    35   17   76 1    
    36   17   77 1    
    37   18   19 1    
    38   18   27 1    
    39   18   78 1    
    40   19   20 am   BACKBONE|DICT|INTERRES
    41   19   79 1    
    42   20   21 2    
    43   20   22 1    
    44   22   23 1    
    45   22   24 1    
    46   22   80 1    
    47   23   81 1    
    48   23   82 1    
    49   23   83 1    
    50   24   25 am   BACKBONE|DICT|INTERRES
    51   24   84 1    
    52   25   26 2    
    53   27   28 2    
    54   27   29 am   BACKBONE|DICT|INTERRES
    55   29   30 1    
    56   29   85 1    
    57   30   31 1    
    58   30   32 1    
    59   30   86 1    
    60   31   87 1    
    61   31   88 1    
    62   31   89 1    
    63   32   33 2    
    64   32   34 am   BACKBONE|DICT|INTERRES
    65   34   35 1    
    66   34   90 1    
    67   35   36 1    
    68   35   37 1    
    69   35   91 1    
    70   36   92 1    
    71   36   93 1    
    72   36   94 1    
    73   37   38 2    
    74   37   39 am   BACKBONE|DICT|INTERRES
    75   39   40 1    
    76   39   95 1    
    77   40   41 1    
    78   40   42 1    
    79   40   96 1    
    80   41   97 1    
    81   41   98 1    
    82   41   99 1    
    83   42   43 2    
    84   42   44 am   BACKBONE|DICT|INTERRES
    85   44   45 1    
    86   44  100 1    
    87   45   46 1    
    88   45   47 1    
    89   45  101 1    
    90   46  102 1    
    91   46  103 1    
    92   46  104 1    
    93   47   48 2    
    94   47   49 am   BACKBONE|DICT|INTERRES
    95   49   50 1    
    96   49  105 1    
    97   50   51 1    
    98   50   52 1    
    99   50  106 1    
   100   51  107 1    
   101   51  108 1    
   102   51  109 1    
   103   52   53 2    
   104   52   54 am   BACKBONE|DICT|INTERRES
   105   54   55 1    
   106   54  110 1    
   107   55   56 1    
   108   55   59 1    
   109   55  111 1    
   110   56   57 am   BACKBONE|DICT|INTERRES
   111   56   58 2    
   112   57  112 1    
   113   57  113 1    
   114   59   60 1    
   115   59  114 1    
   116   59  115 1    
   117   60   61 1    
   118   61  116 1    
   119   61  117 1    
@<TRIPOS>SUBSTRUCTURE
     1 UNK         1 GROUP             0       ****    0 ROOT    
