@<TRIPOS>MOLECULE
3R8
117   119    1
SMALL
USER_CHARGES


@<TRIPOS>ATOM
      1 CA         19.0414  -33.9311  -45.9604 C.3       0 UNK        -0.2013 
      2 C          18.9366  -32.4780  -45.5247 C.2       0 UNK         0.4866 
      3 O          19.4435  -32.1153  -44.4638 O.2       0 UNK        -0.5176 
      4 N          18.2825  -31.6375  -46.3349 N.am      1 UNK        -0.4884 
      5 CA         18.0857  -30.2083  -46.0749 C.3       1 UNK         0.0853 
      6 C6         16.8475  -29.6468  -46.8217 C.3       10 UNK        -0.0849 
      7 S7         15.2958  -30.3486  -46.1663 S.3       10 UNK        -0.2776 
      8 C8         14.5670  -28.9175  -45.2921 C.3       10 UNK         0.0316 
      9 C9         15.4906  -28.2980  -44.2453 C.ar      10 UNK        -0.0863 
     10 C10        16.1402  -29.0996  -43.2985 C.ar      10 UNK        -0.1009 
     11 C11        17.0014  -28.5292  -42.3586 C.ar      10 UNK        -0.0712 
     12 C12        17.1595  -27.1437  -42.3254 C.ar      10 UNK        -0.0894 
     13 C13        16.5293  -26.3272  -43.2686 C.ar      10 UNK        -0.0745 
     14 C14        15.6913  -26.9117  -44.2242 C.ar      10 UNK        -0.0972 
     15 C15        16.7509  -24.8168  -43.2270 C.3       10 UNK         0.0209 
     16 S16        17.4203  -24.1074  -44.7762 S.3       10 UNK        -0.2568 
     17 C17        18.9407  -25.0346  -45.2131 C.3       10 UNK        -0.0983 
     18 CA         19.8033  -25.6153  -44.0550 C.3       3 UNK         0.0876 
     19 N          20.3383  -26.9417  -44.3832 N.am      3 UNK        -0.4424 
     20 C          21.3019  -27.2169  -45.2758 C.2       2 UNK         0.4918 
     21 O          21.9298  -26.3698  -45.9106 O.2       2 UNK        -0.4875 
     22 CA         21.5874  -28.7084  -45.5227 C.3       2 UNK         0.0481 
     23 CB         22.5954  -29.2404  -44.4922 C.3       2 UNK        -0.1831 
     24 N          20.3654  -29.5191  -45.4989 N.am      2 UNK        -0.4498 
     25 C          19.3669  -29.4130  -46.3883 C.2       1 UNK         0.5027 
     26 O          19.4314  -28.7272  -47.4106 O.2       1 UNK        -0.4969 
     27 C          20.8861  -24.6727  -43.4858 C.2       3 UNK         0.5005 
     28 O          20.9863  -23.5036  -43.8630 O.2       3 UNK        -0.5279 
     29 N          21.6823  -25.2371  -42.5730 N.am      4 UNK        -0.4463 
     30 CA         22.7797  -24.6301  -41.8344 C.3       4 UNK         0.0283 
     31 CB         24.0516  -24.6287  -42.7041 C.3       4 UNK        -0.1875 
     32 C          22.9660  -25.4559  -40.5526 C.2       4 UNK         0.4949 
     33 O          22.2829  -26.4694  -40.3746 O.2       4 UNK        -0.5039 
     34 N          23.8789  -25.0179  -39.6778 N.am      5 UNK        -0.4663 
     35 CA         24.2454  -25.7389  -38.4565 C.3       5 UNK         0.0242 
     36 CB         25.1231  -24.8356  -37.5741 C.3       5 UNK        -0.1982 
     37 C          24.9716  -27.0570  -38.7822 C.2       5 UNK         0.5017 
     38 O          25.9376  -27.0364  -39.5491 O.2       5 UNK        -0.5012 
     39 N          24.5040  -28.1574  -38.1756 N.am      6 UNK        -0.4439 
     40 CA         24.9908  -29.5318  -38.3434 C.3       6 UNK         0.0297 
     41 CB         26.4033  -29.6882  -37.7316 C.3       6 UNK        -0.2006 
     42 C          24.8645  -30.0218  -39.8028 C.2       6 UNK         0.4892 
     43 O          23.8108  -29.8254  -40.4113 O.2       6 UNK        -0.5089 
     44 N          25.9175  -30.6680  -40.3266 N.am      7 UNK        -0.4243 
     45 CA         25.9859  -31.3168  -41.6402 C.3       7 UNK         0.0196 
     46 CB         25.9182  -30.2717  -42.7791 C.3       7 UNK        -0.2007 
     47 C          24.9489  -32.4526  -41.7419 C.2       7 UNK         0.5020 
     48 O          24.9617  -33.3453  -40.8927 O.2       7 UNK        -0.5147 
     49 N          24.0836  -32.4179  -42.7631 N.am      8 UNK        -0.4734 
     50 CA         23.0206  -33.4060  -42.9699 C.3       8 UNK         0.0238 
     51 CB         22.5828  -33.3851  -44.4429 C.3       8 UNK        -0.1912 
     52 C          21.8107  -33.2204  -42.0332 C.2       8 UNK         0.5038 
     53 O          21.0753  -34.1872  -41.8255 O.2       8 UNK        -0.5046 
     54 N          21.6232  -32.0117  -41.4839 N.am      9 UNK        -0.4200 
     55 CA         20.5778  -31.7103  -40.4959 C.3       9 UNK         0.0839 
     56 C          20.9243  -32.3014  -39.1028 C.2       9 UNK         0.5513 
     57 N          19.9281  -32.7815  -38.3708 N.am      9 UNK        -0.7519 
     58 O          22.0710  -32.2888  -38.6607 O.2       9 UNK        -0.4960 
     59 C59        20.2969  -30.1894  -40.3910 C.3       10 UNK        -0.0876 
     60 S60        19.5350  -29.5048  -41.9013 S.3       10 UNK        -0.2414 
     61 C61        17.7889  -29.3937  -41.3885 C.3       10 UNK         0.0169 
     62 H62        20.0362  -34.1339  -46.3552 H         1 UNK         0.0903 
     63 H63        18.8694  -34.5915  -45.1107 H         1 UNK         0.0903 
     64 H64        18.3106  -34.1757  -46.7310 H         1 UNK         0.0903 
     65 H65        17.8933  -31.9814  -47.2014 H         1 UNK         0.3096 
     66 H66        17.9112  -30.0804  -45.0061 H         1 UNK         0.1121 
     67 H67        16.8042  -28.5587  -46.7402 H         1 UNK         0.0849 
     68 H68        16.9083  -29.8639  -47.8896 H         1 UNK         0.0849 
     69 H69        14.2733  -28.1739  -46.0347 H         1 UNK         0.0865 
     70 H70        13.6473  -29.2375  -44.8007 H         1 UNK         0.0865 
     71 H71        16.0003  -30.1720  -43.3157 H         1 UNK         0.1346 
     72 H72        17.8051  -26.7076  -41.5751 H         1 UNK         0.1412 
     73 H73        15.1970  -26.2811  -44.9509 H         1 UNK         0.1426 
     74 H74        17.4025  -24.5347  -42.3987 H         1 UNK         0.0716 
     75 H75        15.7929  -24.3374  -43.0214 H         1 UNK         0.0716 
     76 H76        19.5475  -24.4188  -45.8792 H         1 UNK         0.0695 
     77 H77        18.5894  -25.8540  -45.8432 H         1 UNK         0.0695 
     78 H78        19.1700  -25.7945  -43.1982 H         1 UNK         0.0983 
     79 H79        19.9007  -27.7200  -43.9096 H         1 UNK         0.3095 
     80 H80        22.0350  -28.8017  -46.5144 H         1 UNK         0.0454 
     81 H81        22.1813  -29.2615  -43.4835 H         1 UNK         0.0851 
     82 H82        23.4873  -28.6128  -44.4643 H         1 UNK         0.0851 
     83 H83        22.9219  -30.2466  -44.7476 H         1 UNK         0.0851 
     84 H84        20.2483  -30.1784  -44.7355 H         1 UNK         0.2976 
     85 H85        21.4892  -26.1849  -42.2679 H         1 UNK         0.3116 
     86 H86        22.5112  -23.6089  -41.5565 H         1 UNK         0.0646 
     87 H87        24.3625  -25.6425  -42.9608 H         1 UNK         0.0847 
     88 H88        24.8856  -24.1514  -42.1889 H         1 UNK         0.0847 
     89 H89        23.8959  -24.0833  -43.6350 H         1 UNK         0.0847 
     90 H90        24.4198  -24.1948  -39.9006 H         1 UNK         0.3040 
     91 H91        23.3268  -25.9624  -37.9089 H         1 UNK         0.1015 
     92 H92        24.6010  -23.9187  -37.2998 H         1 UNK         0.0786 
     93 H93        26.0506  -24.5577  -38.0766 H         1 UNK         0.0786 
     94 H94        25.3948  -25.3426  -36.6472 H         1 UNK         0.0786 
     95 H95        23.6783  -28.0643  -37.6006 H         1 UNK         0.3172 
     96 H96        24.3143  -30.1621  -37.7640 H         1 UNK         0.0595 
     97 H97        27.1578  -29.1322  -38.2897 H         1 UNK         0.0839 
     98 H98        26.7108  -30.7342  -37.7014 H         1 UNK         0.0839 
     99 H99        26.4252  -29.3268  -36.7033 H         1 UNK         0.0839 
    100 H100       26.7254  -30.7994  -39.7348 H         1 UNK         0.2998 
    101 H101       26.9635  -31.7980  -41.6960 H         1 UNK         0.0822 
    102 H102       24.9697  -29.7354  -42.7934 H         1 UNK         0.0787 
    103 H103       26.7077  -29.5281  -42.6685 H         1 UNK         0.0787 
    104 H104       26.0575  -30.7371  -43.7557 H         1 UNK         0.0787 
    105 H105       24.1434  -31.6555  -43.4212 H         1 UNK         0.3055 
    106 H106       23.4314  -34.3968  -42.7613 H         1 UNK         0.1106 
    107 H107       22.1260  -32.4353  -44.7184 H         1 UNK         0.0828 
    108 H108       23.4228  -33.5658  -45.1137 H         1 UNK         0.0828 
    109 H109       21.8443  -34.1644  -44.6335 H         1 UNK         0.0828 
    110 H110       22.3172  -31.2920  -41.6290 H         1 UNK         0.2931 
    111 H111       19.6570  -32.1886  -40.8377 H         1 UNK         0.0412 
    112 H112       18.9819  -32.7911  -38.7191 H         1 UNK         0.3472 
    113 H113       20.1284  -33.1552  -37.4560 H         1 UNK         0.3472 
    114 H114       19.6448  -29.9762  -39.5421 H         1 UNK         0.0970 
    115 H115       21.2186  -29.6404  -40.1923 H         1 UNK         0.0970 
    116 H116       17.3667  -30.3979  -41.3272 H         1 UNK         0.0612 
    117 H117       17.7197  -28.9606  -40.3896 H         1 UNK         0.0612 
@<TRIPOS>BOND
     1    1    2 1    
     2    1   62 1    
     3    1   63 1    
     4    1   64 1    
     5    2    3 2    
     6    2    4 am   BACKBONE|DICT|INTERRES
     7    4    5 1    
     8    4   65 1    
     9    5    6 1    
    10    5   25 1    
    11    5   66 1    
    12    6    7 1    
    13    6   67 1    
    14    6   68 1    
    15    7    8 1    
    16    8    9 1    
    17    8   69 1    
    18    8   70 1    
    19    9   10 ar   
    20    9   14 ar   
    21   10   11 ar   
    22   10   71 1    
    23   11   12 ar   
    24   11   61 1    
    25   12   13 ar   
    26   12   72 1    
    27   13   14 ar   
    28   13   15 1    
    29   14   73 1    
    30   15   16 1    
    31   15   74 1    
    32   15   75 1    
    33   16   17 1    
    34   17   18 1    
    35   17   76 1    
    36   17   77 1    
    37   18   19 1    
    38   18   27 1    
    39   18   78 1    
    40   19   20 am   BACKBONE|DICT|INTERRES
    41   19   79 1    
    42   20   21 2    
    43   20   22 1    
    44   22   23 1    
    45   22   24 1    
    46   22   80 1    
    47   23   81 1    
    48   23   82 1    
    49   23   83 1    
    50   24   25 am   BACKBONE|DICT|INTERRES
    51   24   84 1    
    52   25   26 2    
    53   27   28 2    
    54   27   29 am   BACKBONE|DICT|INTERRES
    55   29   30 1    
    56   29   85 1    
    57   30   31 1    
    58   30   32 1    
    59   30   86 1    
    60   31   87 1    
    61   31   88 1    
    62   31   89 1    
    63   32   33 2    
    64   32   34 am   BACKBONE|DICT|INTERRES
    65   34   35 1    
    66   34   90 1    
    67   35   36 1    
    68   35   37 1    
    69   35   91 1    
    70   36   92 1    
    71   36   93 1    
    72   36   94 1    
    73   37   38 2    
    74   37   39 am   BACKBONE|DICT|INTERRES
    75   39   40 1    
    76   39   95 1    
    77   40   41 1    
    78   40   42 1    
    79   40   96 1    
    80   41   97 1    
    81   41   98 1    
    82   41   99 1    
    83   42   43 2    
    84   42   44 am   BACKBONE|DICT|INTERRES
    85   44   45 1    
    86   44  100 1    
    87   45   46 1    
    88   45   47 1    
    89   45  101 1    
    90   46  102 1    
    91   46  103 1    
    92   46  104 1    
    93   47   48 2    
    94   47   49 am   BACKBONE|DICT|INTERRES
    95   49   50 1    
    96   49  105 1    
    97   50   51 1    
    98   50   52 1    
    99   50  106 1    
   100   51  107 1    
   101   51  108 1    
   102   51  109 1    
   103   52   53 2    
   104   52   54 am   BACKBONE|DICT|INTERRES
   105   54   55 1    
   106   54  110 1    
   107   55   56 1    
   108   55   59 1    
   109   55  111 1    
   110   56   57 am   BACKBONE|DICT|INTERRES
   111   56   58 2    
   112   57  112 1    
   113   57  113 1    
   114   59   60 1    
   115   59  114 1    
   116   59  115 1    
   117   60   61 1    
   118   61  116 1    
   119   61  117 1    
@<TRIPOS>SUBSTRUCTURE
     1 UNK         1 GROUP             0       ****    0 ROOT    
