@<TRIPOS>MOLECULE
3R8
117   119    1
SMALL
USER_CHARGES


@<TRIPOS>ATOM
      1 CA         15.3761  -22.1982  -43.0211 C.3       0 UNK        -0.2013 
      2 C          15.7956  -22.9436  -44.2793 C.2       0 UNK         0.4866 
      3 O          15.3859  -22.5696  -45.3788 O.2       0 UNK        -0.5176 
      4 N          16.6133  -23.9886  -44.1268 N.am      1 UNK        -0.4884 
      5 CA         17.1576  -24.8121  -45.2066 C.3       1 UNK         0.0853 
      6 C6         16.1124  -25.7629  -45.8567 C.3       10 UNK        -0.0849 
      7 S7         15.3420  -26.9395  -44.6909 S.3       10 UNK        -0.2776 
      8 C8         15.4454  -28.5325  -45.5811 C.3       10 UNK         0.0316 
      9 C9         16.3669  -29.5318  -44.8913 C.ar      10 UNK        -0.0863 
     10 C10        17.3625  -30.2049  -45.6101 C.ar      10 UNK        -0.1009 
     11 C11        18.1596  -31.1739  -44.9869 C.ar      10 UNK        -0.0712 
     12 C12        17.9477  -31.4675  -43.6376 C.ar      10 UNK        -0.0894 
     13 C13        16.9926  -30.7690  -42.8990 C.ar      10 UNK        -0.0745 
     14 C14        16.1900  -29.8211  -43.5352 C.ar      10 UNK        -0.0972 
     15 C15        16.8503  -31.0163  -41.4061 C.3       10 UNK         0.0209 
     16 S16        18.3212  -30.4525  -40.4877 S.3       10 UNK        -0.2568 
     17 C17        18.4396  -28.6922  -40.9620 C.3       10 UNK        -0.0983 
     18 CA         19.7771  -28.3760  -41.6969 C.3       3 UNK         0.0876 
     19 N          19.5813  -28.0118  -43.1109 N.am      3 UNK        -0.4424 
     20 C          20.5832  -27.7703  -43.9721 C.2       2 UNK         0.4918 
     21 O          21.7656  -27.9683  -43.6952 O.2       2 UNK        -0.4875 
     22 CA         20.2590  -27.1133  -45.3301 C.3       2 UNK         0.0481 
     23 CB         20.4773  -28.0897  -46.4942 C.3       2 UNK        -0.1831 
     24 N          18.9424  -26.4810  -45.4727 N.am      2 UNK        -0.4498 
     25 C          18.4420  -25.5017  -44.7062 C.2       1 UNK         0.5027 
     26 O          18.9652  -25.1254  -43.6527 O.2       1 UNK        -0.4969 
     27 C          20.5918  -27.3138  -40.9182 C.2       3 UNK         0.5005 
     28 O          21.3277  -27.6724  -39.9975 O.2       3 UNK        -0.5279 
     29 N          20.4911  -26.0362  -41.3235 N.am      4 UNK        -0.4463 
     30 CA         21.2437  -24.9082  -40.7641 C.3       4 UNK         0.0283 
     31 CB         20.6976  -23.5954  -41.3481 C.3       4 UNK        -0.1875 
     32 C          22.7681  -24.9944  -40.9761 C.2       4 UNK         0.4949 
     33 O          23.5060  -24.3223  -40.2556 O.2       4 UNK        -0.5039 
     34 N          23.2228  -25.8220  -41.9296 N.am      5 UNK        -0.4663 
     35 CA         24.6404  -26.1217  -42.1553 C.3       5 UNK         0.0242 
     36 CB         24.8270  -26.6242  -43.5970 C.3       5 UNK        -0.1982 
     37 C          25.2126  -27.1394  -41.1475 C.2       5 UNK         0.5017 
     38 O          26.4271  -27.3461  -41.1458 O.2       5 UNK        -0.5012 
     39 N          24.3474  -27.7494  -40.3202 N.am      6 UNK        -0.4439 
     40 CA         24.6411  -28.7966  -39.3381 C.3       6 UNK         0.0297 
     41 CB         25.5931  -28.2784  -38.2350 C.3       6 UNK        -0.2006 
     42 C          25.1028  -30.1042  -40.0123 C.2       6 UNK         0.4892 
     43 O          24.6673  -30.3967  -41.1292 O.2       6 UNK        -0.5089 
     44 N          25.9147  -30.9013  -39.2978 N.am      7 UNK        -0.4243 
     45 CA         26.4650  -32.2066  -39.7026 C.3       7 UNK         0.0196 
     46 CB         27.5261  -32.0160  -40.8073 C.3       7 UNK        -0.2007 
     47 C          25.3875  -33.2394  -40.0980 C.2       7 UNK         0.5020 
     48 O          25.6330  -34.0871  -40.9580 O.2       7 UNK        -0.5147 
     49 N          24.1915  -33.1096  -39.5010 N.am      8 UNK        -0.4734 
     50 CA         22.9559  -33.8480  -39.7999 C.3       8 UNK         0.0238 
     51 CB         23.0852  -35.3161  -39.3402 C.3       8 UNK        -0.1912 
     52 C          22.4920  -33.7322  -41.2700 C.2       8 UNK         0.5038 
     53 O          21.7706  -34.6132  -41.7409 O.2       8 UNK        -0.5046 
     54 N          22.9164  -32.6676  -41.9715 N.am      9 UNK        -0.4200 
     55 CA         22.7340  -32.4686  -43.4187 C.3       9 UNK         0.0839 
     56 C          23.5342  -33.4846  -44.2977 C.2       9 UNK         0.5513 
     57 N          24.5625  -34.1452  -43.7751 N.am      9 UNK        -0.7519 
     58 O          23.2446  -33.6701  -45.4764 O.2       9 UNK        -0.4960 
     59 C59        21.2300  -32.3313  -43.7940 C.3       10 UNK        -0.0876 
     60 S60        20.9198  -31.3748  -45.3168 S.3       10 UNK        -0.2414 
     61 C61        19.2370  -31.9170  -45.7681 C.3       10 UNK         0.0169 
     62 H62        14.2919  -22.2228  -42.9149 H         1 UNK         0.0903 
     63 H63        15.8144  -22.6343  -42.1235 H         1 UNK         0.0903 
     64 H64        15.6896  -21.1562  -43.0797 H         1 UNK         0.0903 
     65 H65        16.9819  -24.2257  -43.2140 H         1 UNK         0.3096 
     66 H66        17.5004  -24.1264  -45.9850 H         1 UNK         0.1121 
     67 H67        15.3075  -25.1683  -46.2911 H         1 UNK         0.0849 
     68 H68        16.5501  -26.2911  -46.7040 H         1 UNK         0.0849 
     69 H69        14.4450  -28.9656  -45.6211 H         1 UNK         0.0865 
     70 H70        15.7418  -28.3806  -46.6193 H         1 UNK         0.0865 
     71 H71        17.5052  -29.9896  -46.6602 H         1 UNK         0.1346 
     72 H72        18.5418  -32.2231  -43.1459 H         1 UNK         0.1412 
     73 H73        15.4304  -29.2968  -42.9711 H         1 UNK         0.1426 
     74 H74        16.7045  -32.0824  -41.2272 H         1 UNK         0.0716 
     75 H75        15.9680  -30.5125  -41.0081 H         1 UNK         0.0716 
     76 H76        18.3263  -28.1192  -40.0390 H         1 UNK         0.0695 
     77 H77        17.5788  -28.4031  -41.5649 H         1 UNK         0.0695 
     78 H78        20.4041  -29.2708  -41.7060 H         1 UNK         0.0983 
     79 H79        18.6340  -27.8395  -43.4133 H         1 UNK         0.3095 
     80 H80        20.9902  -26.3107  -45.4461 H         1 UNK         0.0454 
     81 H81        19.7321  -28.8834  -46.4988 H         1 UNK         0.0851 
     82 H82        21.4584  -28.5625  -46.4304 H         1 UNK         0.0851 
     83 H83        20.4315  -27.5802  -47.4566 H         1 UNK         0.0851 
     84 H84        18.4234  -26.7446  -46.2969 H         1 UNK         0.2976 
     85 H85        19.8842  -25.8201  -42.1113 H         1 UNK         0.3116 
     86 H86        21.0682  -24.9000  -39.6864 H         1 UNK         0.0646 
     87 H87        21.1939  -22.7324  -40.9022 H         1 UNK         0.0847 
     88 H88        19.6296  -23.4879  -41.1581 H         1 UNK         0.0847 
     89 H89        20.8534  -23.5390  -42.4262 H         1 UNK         0.0847 
     90 H90        22.5586  -26.3619  -42.4728 H         1 UNK         0.3040 
     91 H91        25.2139  -25.1989  -42.0425 H         1 UNK         0.1015 
     92 H92        24.4011  -25.9305  -44.3220 H         1 UNK         0.0786 
     93 H93        24.3620  -27.5990  -43.7478 H         1 UNK         0.0786 
     94 H94        25.8857  -26.7333  -43.8359 H         1 UNK         0.0786 
     95 H95        23.3613  -27.5333  -40.4230 H         1 UNK         0.3172 
     96 H96        23.6857  -29.0259  -38.8641 H         1 UNK         0.0595 
     97 H97        26.6140  -28.1553  -38.5990 H         1 UNK         0.0839 
     98 H98        25.6247  -28.9573  -37.3824 H         1 UNK         0.0839 
     99 H99        25.2613  -27.3127  -37.8530 H         1 UNK         0.0839 
    100 H100       26.1942  -30.5792  -38.3814 H         1 UNK         0.2998 
    101 H101       26.9680  -32.6172  -38.8259 H         1 UNK         0.0822 
    102 H102       27.0800  -31.6611  -41.7373 H         1 UNK         0.0787 
    103 H103       28.2879  -31.2970  -40.5061 H         1 UNK         0.0787 
    104 H104       28.0376  -32.9536  -41.0285 H         1 UNK         0.0787 
    105 H105       24.0997  -32.3718  -38.8163 H         1 UNK         0.3055 
    106 H106       22.1672  -33.3836  -39.2055 H         1 UNK         0.1106 
    107 H107       23.8095  -35.8654  -39.9425 H         1 UNK         0.0828 
    108 H108       23.3978  -35.3803  -38.2981 H         1 UNK         0.0828 
    109 H109       22.1319  -35.8399  -39.4217 H         1 UNK         0.0828 
    110 H110       23.5236  -31.9900  -41.5200 H         1 UNK         0.2931 
    111 H111       23.2030  -31.5033  -43.6136 H         1 UNK         0.0412 
    112 H112       25.0744  -34.7910  -44.3548 H         1 UNK         0.3472 
    113 H113       24.8287  -34.0237  -42.8034 H         1 UNK         0.3472 
    114 H114       20.7621  -33.3140  -43.8703 H         1 UNK         0.0970 
    115 H115       20.7162  -31.8042  -42.9896 H         1 UNK         0.0970 
    116 H116       19.1028  -31.7531  -46.8382 H         1 UNK         0.0612 
    117 H117       19.1365  -32.9920  -45.6129 H         1 UNK         0.0612 
@<TRIPOS>BOND
     1    1    2 1    
     2    1   62 1    
     3    1   63 1    
     4    1   64 1    
     5    2    3 2    
     6    2    4 am   BACKBONE|DICT|INTERRES
     7    4    5 1    
     8    4   65 1    
     9    5    6 1    
    10    5   25 1    
    11    5   66 1    
    12    6    7 1    
    13    6   67 1    
    14    6   68 1    
    15    7    8 1    
    16    8    9 1    
    17    8   69 1    
    18    8   70 1    
    19    9   10 ar   
    20    9   14 ar   
    21   10   11 ar   
    22   10   71 1    
    23   11   12 ar   
    24   11   61 1    
    25   12   13 ar   
    26   12   72 1    
    27   13   14 ar   
    28   13   15 1    
    29   14   73 1    
    30   15   16 1    
    31   15   74 1    
    32   15   75 1    
    33   16   17 1    
    34   17   18 1    
    35   17   76 1    
    36   17   77 1    
    37   18   19 1    
    38   18   27 1    
    39   18   78 1    
    40   19   20 am   BACKBONE|DICT|INTERRES
    41   19   79 1    
    42   20   21 2    
    43   20   22 1    
    44   22   23 1    
    45   22   24 1    
    46   22   80 1    
    47   23   81 1    
    48   23   82 1    
    49   23   83 1    
    50   24   25 am   BACKBONE|DICT|INTERRES
    51   24   84 1    
    52   25   26 2    
    53   27   28 2    
    54   27   29 am   BACKBONE|DICT|INTERRES
    55   29   30 1    
    56   29   85 1    
    57   30   31 1    
    58   30   32 1    
    59   30   86 1    
    60   31   87 1    
    61   31   88 1    
    62   31   89 1    
    63   32   33 2    
    64   32   34 am   BACKBONE|DICT|INTERRES
    65   34   35 1    
    66   34   90 1    
    67   35   36 1    
    68   35   37 1    
    69   35   91 1    
    70   36   92 1    
    71   36   93 1    
    72   36   94 1    
    73   37   38 2    
    74   37   39 am   BACKBONE|DICT|INTERRES
    75   39   40 1    
    76   39   95 1    
    77   40   41 1    
    78   40   42 1    
    79   40   96 1    
    80   41   97 1    
    81   41   98 1    
    82   41   99 1    
    83   42   43 2    
    84   42   44 am   BACKBONE|DICT|INTERRES
    85   44   45 1    
    86   44  100 1    
    87   45   46 1    
    88   45   47 1    
    89   45  101 1    
    90   46  102 1    
    91   46  103 1    
    92   46  104 1    
    93   47   48 2    
    94   47   49 am   BACKBONE|DICT|INTERRES
    95   49   50 1    
    96   49  105 1    
    97   50   51 1    
    98   50   52 1    
    99   50  106 1    
   100   51  107 1    
   101   51  108 1    
   102   51  109 1    
   103   52   53 2    
   104   52   54 am   BACKBONE|DICT|INTERRES
   105   54   55 1    
   106   54  110 1    
   107   55   56 1    
   108   55   59 1    
   109   55  111 1    
   110   56   57 am   BACKBONE|DICT|INTERRES
   111   56   58 2    
   112   57  112 1    
   113   57  113 1    
   114   59   60 1    
   115   59  114 1    
   116   59  115 1    
   117   60   61 1    
   118   61  116 1    
   119   61  117 1    
@<TRIPOS>SUBSTRUCTURE
     1 UNK         1 GROUP             0       ****    0 ROOT    
