@<TRIPOS>MOLECULE
3R8
117   119    1
SMALL
USER_CHARGES


@<TRIPOS>ATOM
      1 CA         22.5540  -23.5976  -46.1172 C.3       0 UNK        -0.2013 
      2 C          22.5080  -25.1179  -46.1527 C.2       0 UNK         0.4866 
      3 O          23.1175  -25.7304  -47.0297 O.2       0 UNK        -0.5176 
      4 N          21.7981  -25.7286  -45.2003 N.am      1 UNK        -0.4884 
      5 CA         21.6645  -27.1746  -45.0328 C.3       1 UNK         0.0853 
      6 C6         20.7160  -27.8298  -46.0717 C.3       10 UNK        -0.0849 
      7 S7         19.0226  -27.1525  -46.0583 S.3       10 UNK        -0.2776 
      8 C8         18.1070  -28.5335  -46.8069 C.3       10 UNK         0.0316 
      9 C9         17.7554  -29.5957  -45.7769 C.ar      10 UNK        -0.0863 
     10 C10        18.3976  -30.8383  -45.7712 C.ar      10 UNK        -0.1009 
     11 C11        18.0203  -31.8301  -44.8581 C.ar      10 UNK        -0.0712 
     12 C12        17.0054  -31.5586  -43.9314 C.ar      10 UNK        -0.0894 
     13 C13        16.3506  -30.3202  -43.9366 C.ar      10 UNK        -0.0745 
     14 C14        16.7337  -29.3458  -44.8597 C.ar      10 UNK        -0.0972 
     15 C15        15.1708  -30.0569  -43.0106 C.3       10 UNK         0.0209 
     16 S16        15.6727  -29.4578  -41.3692 S.3       10 UNK        -0.2568 
     17 C17        16.1476  -27.7161  -41.6693 C.3       10 UNK        -0.0983 
     18 CA         17.5233  -27.4276  -41.0251 C.3       3 UNK         0.0876 
     19 N          18.6061  -28.1660  -41.6845 N.am      3 UNK        -0.4424 
     20 C          19.7171  -28.5556  -41.0526 C.2       2 UNK         0.4918 
     21 O          19.9340  -28.3412  -39.8611 O.2       2 UNK        -0.4875 
     22 CA         20.7970  -29.2399  -41.8932 C.3       2 UNK         0.0481 
     23 CB         20.5388  -30.7422  -41.9428 C.3       2 UNK        -0.1831 
     24 N          20.9489  -28.7269  -43.2573 N.am      2 UNK        -0.4498 
     25 C          21.3223  -27.4775  -43.5609 C.2       1 UNK         0.5027 
     26 O          21.4349  -26.5886  -42.7113 O.2       1 UNK        -0.4969 
     27 C          17.8424  -25.9210  -40.8618 C.2       3 UNK         0.5005 
     28 O          17.0745  -25.2152  -40.2063 O.2       3 UNK        -0.5279 
     29 N          18.9930  -25.4686  -41.3861 N.am      4 UNK        -0.4463 
     30 CA         19.6382  -24.1922  -41.0633 C.3       4 UNK         0.0283 
     31 CB         20.0024  -23.4684  -42.3723 C.3       4 UNK        -0.1875 
     32 C          20.8871  -24.4012  -40.1759 C.2       4 UNK         0.4949 
     33 O          21.6471  -23.4521  -39.9843 O.2       4 UNK        -0.5039 
     34 N          21.0842  -25.6273  -39.6593 N.am      5 UNK        -0.4663 
     35 CA         22.1876  -26.0932  -38.8072 C.3       5 UNK         0.0242 
     36 CB         22.1798  -25.3566  -37.4500 C.3       5 UNK        -0.1982 
     37 C          23.5712  -26.0761  -39.4897 C.2       5 UNK         0.5017 
     38 O          24.5823  -25.9617  -38.7943 O.2       5 UNK        -0.5012 
     39 N          23.6039  -26.1944  -40.8247 N.am      6 UNK        -0.4439 
     40 CA         24.8167  -26.0689  -41.6395 C.3       6 UNK         0.0297 
     41 CB         24.5810  -24.9683  -42.6889 C.3       6 UNK        -0.2006 
     42 C          25.2593  -27.3829  -42.3118 C.2       6 UNK         0.4892 
     43 O          26.2436  -27.3546  -43.0522 O.2       6 UNK        -0.5089 
     44 N          24.5604  -28.5019  -42.0732 N.am      7 UNK        -0.4243 
     45 CA         24.8596  -29.8104  -42.6653 C.3       7 UNK         0.0196 
     46 CB         24.3977  -29.8519  -44.1404 C.3       7 UNK        -0.2007 
     47 C          24.2207  -30.9380  -41.8389 C.2       7 UNK         0.5020 
     48 O          23.6578  -30.6814  -40.7733 O.2       7 UNK        -0.5147 
     49 N          24.3052  -32.1641  -42.3644 N.am      8 UNK        -0.4734 
     50 CA         23.6811  -33.3905  -41.8696 C.3       8 UNK         0.0238 
     51 CB         24.4904  -33.9371  -40.6775 C.3       8 UNK        -0.1912 
     52 C          23.6812  -34.3777  -43.0536 C.2       8 UNK         0.5038 
     53 O          24.6983  -34.4223  -43.7487 O.2       8 UNK        -0.5046 
     54 N          22.6314  -35.1629  -43.3435 N.am      9 UNK        -0.4200 
     55 CA         21.3055  -35.3192  -42.7098 C.3       9 UNK         0.0839 
     56 C          21.3328  -35.9731  -41.2979 C.2       9 UNK         0.5513 
     57 N          22.3361  -36.7813  -40.9808 N.am      9 UNK        -0.7519 
     58 O          20.4363  -35.7607  -40.4862 O.2       9 UNK        -0.4960 
     59 C59        20.3623  -34.0811  -42.8060 C.3       10 UNK        -0.0876 
     60 S60        20.3970  -33.2383  -44.4326 S.3       10 UNK        -0.2414 
     61 C61        18.6471  -33.2189  -44.9446 C.3       10 UNK         0.0169 
     62 H62        21.9592  -23.1897  -45.3001 H         1 UNK         0.0903 
     63 H63        22.1705  -23.1890  -47.0518 H         1 UNK         0.0903 
     64 H64        23.5814  -23.2568  -45.9915 H         1 UNK         0.0903 
     65 H65        21.3505  -25.1943  -44.4681 H         1 UNK         0.3096 
     66 H66        22.6580  -27.6031  -45.1804 H         1 UNK         0.1121 
     67 H67        20.6835  -28.9120  -45.9401 H         1 UNK         0.0849 
     68 H68        21.1201  -27.6806  -47.0742 H         1 UNK         0.0849 
     69 H69        17.1876  -28.1458  -47.2484 H         1 UNK         0.0865 
     70 H70        18.6807  -28.9581  -47.6324 H         1 UNK         0.0865 
     71 H71        19.1694  -31.0504  -46.4986 H         1 UNK         0.1346 
     72 H72        16.6936  -32.3243  -43.2342 H         1 UNK         0.1412 
     73 H73        16.2171  -28.3961  -44.8878 H         1 UNK         0.1426 
     74 H74        14.4797  -29.3420  -43.4603 H         1 UNK         0.0716 
     75 H75        14.6026  -30.9793  -42.8817 H         1 UNK         0.0716 
     76 H76        15.3713  -27.0869  -41.2301 H         1 UNK         0.0695 
     77 H77        16.1602  -27.4890  -42.7350 H         1 UNK         0.0695 
     78 H78        17.4556  -27.7901  -39.9960 H         1 UNK         0.0983 
     79 H79        18.4858  -28.3864  -42.6630 H         1 UNK         0.3095 
     80 H80        21.7440  -29.0703  -41.3812 H         1 UNK         0.0454 
     81 H81        20.5091  -31.1656  -40.9378 H         1 UNK         0.0851 
     82 H82        21.3366  -31.2449  -42.4858 H         1 UNK         0.0851 
     83 H83        19.5917  -30.9762  -42.4304 H         1 UNK         0.0851 
     84 H84        20.8277  -29.3973  -44.0025 H         1 UNK         0.2976 
     85 H85        19.5678  -26.1121  -41.9182 H         1 UNK         0.3116 
     86 H86        18.9529  -23.5535  -40.5027 H         1 UNK         0.0646 
     87 H87        19.1357  -23.3646  -43.0252 H         1 UNK         0.0847 
     88 H88        20.3762  -22.4638  -42.1707 H         1 UNK         0.0847 
     89 H89        20.7799  -23.9962  -42.9228 H         1 UNK         0.0847 
     90 H90        20.4013  -26.3457  -39.8700 H         1 UNK         0.3040 
     91 H91        21.9833  -27.1449  -38.6011 H         1 UNK         0.1015 
     92 H92        22.4552  -24.3070  -37.5568 H         1 UNK         0.0786 
     93 H93        22.8877  -25.8080  -36.7538 H         1 UNK         0.0786 
     94 H94        21.1969  -25.4002  -36.9808 H         1 UNK         0.0786 
     95 H95        22.7277  -26.2838  -41.3340 H         1 UNK         0.3172 
     96 H96        25.6572  -25.7496  -41.0205 H         1 UNK         0.0595 
     97 H97        25.4778  -24.7873  -43.2829 H         1 UNK         0.0839 
     98 H98        24.3101  -24.0232  -42.2176 H         1 UNK         0.0839 
     99 H99        23.7831  -25.2380  -43.3776 H         1 UNK         0.0839 
    100 H100       23.8205  -28.4998  -41.3835 H         1 UNK         0.2998 
    101 H101       25.9402  -29.9641  -42.6271 H         1 UNK         0.0822 
    102 H102       24.7685  -28.9981  -44.7072 H         1 UNK         0.0787 
    103 H103       24.7684  -30.7430  -44.6478 H         1 UNK         0.0787 
    104 H104       23.3117  -29.8638  -44.2217 H         1 UNK         0.0787 
    105 H105       24.7907  -32.2940  -43.2443 H         1 UNK         0.3055 
    106 H106       22.6698  -33.1654  -41.5431 H         1 UNK         0.1106 
    107 H107       24.5360  -33.2148  -39.8624 H         1 UNK         0.0828 
    108 H108       24.0424  -34.8426  -40.2722 H         1 UNK         0.0828 
    109 H109       25.5144  -34.1801  -40.9638 H         1 UNK         0.0828 
    110 H110       22.7525  -35.7701  -44.1402 H         1 UNK         0.2931 
    111 H111       20.8280  -36.0827  -43.3252 H         1 UNK         0.0412 
    112 H112       23.0634  -36.9866  -41.6479 H         1 UNK         0.3472 
    113 H113       22.3503  -37.2153  -40.0708 H         1 UNK         0.3472 
    114 H114       19.3408  -34.3987  -42.5927 H         1 UNK         0.0970 
    115 H115       20.5840  -33.3660  -42.0210 H         1 UNK         0.0970 
    116 H116       18.5964  -33.5557  -45.9810 H         1 UNK         0.0612 
    117 H117       18.0670  -33.9445  -44.3738 H         1 UNK         0.0612 
@<TRIPOS>BOND
     1    1    2 1    
     2    1   62 1    
     3    1   63 1    
     4    1   64 1    
     5    2    3 2    
     6    2    4 am   BACKBONE|DICT|INTERRES
     7    4    5 1    
     8    4   65 1    
     9    5    6 1    
    10    5   25 1    
    11    5   66 1    
    12    6    7 1    
    13    6   67 1    
    14    6   68 1    
    15    7    8 1    
    16    8    9 1    
    17    8   69 1    
    18    8   70 1    
    19    9   10 ar   
    20    9   14 ar   
    21   10   11 ar   
    22   10   71 1    
    23   11   12 ar   
    24   11   61 1    
    25   12   13 ar   
    26   12   72 1    
    27   13   14 ar   
    28   13   15 1    
    29   14   73 1    
    30   15   16 1    
    31   15   74 1    
    32   15   75 1    
    33   16   17 1    
    34   17   18 1    
    35   17   76 1    
    36   17   77 1    
    37   18   19 1    
    38   18   27 1    
    39   18   78 1    
    40   19   20 am   BACKBONE|DICT|INTERRES
    41   19   79 1    
    42   20   21 2    
    43   20   22 1    
    44   22   23 1    
    45   22   24 1    
    46   22   80 1    
    47   23   81 1    
    48   23   82 1    
    49   23   83 1    
    50   24   25 am   BACKBONE|DICT|INTERRES
    51   24   84 1    
    52   25   26 2    
    53   27   28 2    
    54   27   29 am   BACKBONE|DICT|INTERRES
    55   29   30 1    
    56   29   85 1    
    57   30   31 1    
    58   30   32 1    
    59   30   86 1    
    60   31   87 1    
    61   31   88 1    
    62   31   89 1    
    63   32   33 2    
    64   32   34 am   BACKBONE|DICT|INTERRES
    65   34   35 1    
    66   34   90 1    
    67   35   36 1    
    68   35   37 1    
    69   35   91 1    
    70   36   92 1    
    71   36   93 1    
    72   36   94 1    
    73   37   38 2    
    74   37   39 am   BACKBONE|DICT|INTERRES
    75   39   40 1    
    76   39   95 1    
    77   40   41 1    
    78   40   42 1    
    79   40   96 1    
    80   41   97 1    
    81   41   98 1    
    82   41   99 1    
    83   42   43 2    
    84   42   44 am   BACKBONE|DICT|INTERRES
    85   44   45 1    
    86   44  100 1    
    87   45   46 1    
    88   45   47 1    
    89   45  101 1    
    90   46  102 1    
    91   46  103 1    
    92   46  104 1    
    93   47   48 2    
    94   47   49 am   BACKBONE|DICT|INTERRES
    95   49   50 1    
    96   49  105 1    
    97   50   51 1    
    98   50   52 1    
    99   50  106 1    
   100   51  107 1    
   101   51  108 1    
   102   51  109 1    
   103   52   53 2    
   104   52   54 am   BACKBONE|DICT|INTERRES
   105   54   55 1    
   106   54  110 1    
   107   55   56 1    
   108   55   59 1    
   109   55  111 1    
   110   56   57 am   BACKBONE|DICT|INTERRES
   111   56   58 2    
   112   57  112 1    
   113   57  113 1    
   114   59   60 1    
   115   59  114 1    
   116   59  115 1    
   117   60   61 1    
   118   61  116 1    
   119   61  117 1    
@<TRIPOS>SUBSTRUCTURE
     1 UNK         1 GROUP             0       ****    0 ROOT    
