@<TRIPOS>MOLECULE
3R8
117   119    1
SMALL
USER_CHARGES


@<TRIPOS>ATOM
      1 CA         19.8992  -29.3317  -42.1217 C.3       0 UNK        -0.2013 
      2 C          18.5596  -28.6146  -42.1766 C.2       0 UNK         0.4866 
      3 O          18.1705  -27.9963  -41.1872 O.2       0 UNK        -0.5176 
      4 N          17.8590  -28.6722  -43.3208 N.am      1 UNK        -0.4884 
      5 CA         16.5634  -28.0033  -43.5402 C.3       1 UNK         0.0853 
      6 C6         15.9025  -28.4038  -44.8823 C.3       10 UNK        -0.0849 
      7 S7         15.5771  -30.1946  -45.0022 S.3       10 UNK        -0.2776 
      8 C8         16.5317  -30.6531  -46.4858 C.3       10 UNK         0.0316 
      9 C9         18.0314  -30.6359  -46.2271 C.ar      10 UNK        -0.0863 
     10 C10        18.6048  -31.6136  -45.4110 C.ar      10 UNK        -0.1009 
     11 C11        19.9824  -31.6201  -45.1509 C.ar      10 UNK        -0.0712 
     12 C12        20.7830  -30.6440  -45.7544 C.ar      10 UNK        -0.0894 
     13 C13        20.2259  -29.6713  -46.5906 C.ar      10 UNK        -0.0745 
     14 C14        18.8468  -29.6669  -46.8167 C.ar      10 UNK        -0.0972 
     15 C15        21.1154  -28.6465  -47.2814 C.3       10 UNK         0.0209 
     16 S16        20.9478  -26.9863  -46.5578 S.3       10 UNK        -0.2568 
     17 C17        21.8224  -27.2014  -44.9743 C.3       10 UNK        -0.0983 
     18 CA         21.7817  -25.9269  -44.0883 C.3       3 UNK         0.0876 
     19 N          20.4139  -25.5689  -43.7268 N.am      3 UNK        -0.4424 
     20 C          19.7272  -24.5261  -44.2103 C.2       2 UNK         0.4918 
     21 O          20.2297  -23.6205  -44.8768 O.2       2 UNK        -0.4875 
     22 CA         18.2106  -24.5513  -43.9530 C.3       2 UNK         0.0481 
     23 CB         17.4162  -23.6479  -44.9169 C.3       2 UNK        -0.1831 
     24 N          17.7498  -25.9357  -44.0542 N.am      2 UNK        -0.4498 
     25 C          16.6844  -26.4676  -43.4464 C.2       1 UNK         0.5027 
     26 O          15.8520  -25.8180  -42.8120 O.2       1 UNK        -0.4969 
     27 C          22.5690  -26.1117  -42.7847 C.2       3 UNK         0.5005 
     28 O          22.8245  -27.2469  -42.3768 O.2       3 UNK        -0.5279 
     29 N          22.9331  -24.9964  -42.1370 N.am      4 UNK        -0.4463 
     30 CA         23.6727  -24.9656  -40.8662 C.3       4 UNK         0.0283 
     31 CB         23.8024  -23.5105  -40.3885 C.3       4 UNK        -0.1875 
     32 C          25.0584  -25.6400  -40.9155 C.2       4 UNK         0.4949 
     33 O          25.5448  -26.0933  -39.8804 O.2       4 UNK        -0.5039 
     34 N          25.6570  -25.7149  -42.1126 N.am      5 UNK        -0.4663 
     35 CA         26.8948  -26.4507  -42.3798 C.3       5 UNK         0.0242 
     36 CB         27.4758  -25.9828  -43.7240 C.3       5 UNK        -0.1982 
     37 C          26.7063  -27.9803  -42.3800 C.2       5 UNK         0.5017 
     38 O          27.6765  -28.6964  -42.1303 O.2       5 UNK        -0.5012 
     39 N          25.4833  -28.4524  -42.6645 N.am      6 UNK        -0.4439 
     40 CA         25.1101  -29.8665  -42.6290 C.3       6 UNK         0.0297 
     41 CB         24.0744  -30.1702  -43.7264 C.3       6 UNK        -0.2006 
     42 C          24.5676  -30.2331  -41.2427 C.2       6 UNK         0.4892 
     43 O          25.0715  -31.1747  -40.6307 O.2       6 UNK        -0.5089 
     44 N          23.5580  -29.4771  -40.7810 N.am      7 UNK        -0.4243 
     45 CA         22.8724  -29.5121  -39.4783 C.3       7 UNK         0.0196 
     46 CB         23.8405  -29.1147  -38.3486 C.3       7 UNK        -0.2007 
     47 C          22.1338  -30.8165  -39.1128 C.2       7 UNK         0.5020 
     48 O          21.0857  -30.7441  -38.4717 O.2       7 UNK        -0.5147 
     49 N          22.6774  -31.9752  -39.5045 N.am      8 UNK        -0.4734 
     50 CA         22.2534  -33.3264  -39.1155 C.3       8 UNK         0.0238 
     51 CB         23.1925  -34.3506  -39.7733 C.3       8 UNK        -0.1912 
     52 C          20.7874  -33.6787  -39.4198 C.2       8 UNK         0.5038 
     53 O          20.2037  -34.4824  -38.6910 O.2       8 UNK        -0.5046 
     54 N          20.2226  -33.0758  -40.4725 N.am      9 UNK        -0.4200 
     55 CA         18.8051  -33.2143  -40.8421 C.3       9 UNK         0.0839 
     56 C          17.8254  -32.4100  -39.9363 C.2       9 UNK         0.5513 
     57 N          18.2885  -31.5422  -39.0437 N.am      9 UNK        -0.7519 
     58 O          16.6146  -32.5844  -40.0438 O.2       9 UNK        -0.4960 
     59 C59        18.5534  -32.9033  -42.3394 C.3       10 UNK        -0.0876 
     60 S60        19.5746  -33.9072  -43.4746 S.3       10 UNK        -0.2414 
     61 C61        20.6596  -32.6437  -44.2315 C.3       10 UNK         0.0169 
     62 H62        20.6818  -28.6315  -41.8366 H         1 UNK         0.0903 
     63 H63        19.8715  -30.1198  -41.3709 H         1 UNK         0.0903 
     64 H64        20.1702  -29.7686  -43.0797 H         1 UNK         0.0903 
     65 H65        18.1988  -29.2261  -44.0965 H         1 UNK         0.3096 
     66 H66        15.8987  -28.3161  -42.7314 H         1 UNK         0.1121 
     67 H67        16.5162  -28.0817  -45.7255 H         1 UNK         0.0849 
     68 H68        14.9440  -27.8938  -44.9987 H         1 UNK         0.0849 
     69 H69        16.2367  -31.6566  -46.7963 H         1 UNK         0.0865 
     70 H70        16.2657  -29.9919  -47.3122 H         1 UNK         0.0865 
     71 H71        17.9551  -32.3611  -44.9810 H         1 UNK         0.1346 
     72 H72        21.8498  -30.6467  -45.5790 H         1 UNK         0.1412 
     73 H73        18.4150  -28.9151  -47.4637 H         1 UNK         0.1426 
     74 H74        20.8467  -28.5958  -48.3375 H         1 UNK         0.0716 
     75 H75        22.1624  -28.9521  -47.2495 H         1 UNK         0.0716 
     76 H76        22.8546  -27.4815  -45.1936 H         1 UNK         0.0695 
     77 H77        21.3746  -28.0475  -44.4515 H         1 UNK         0.0695 
     78 H78        22.2593  -25.1154  -44.6422 H         1 UNK         0.0983 
     79 H79        19.9427  -26.2100  -43.1057 H         1 UNK         0.3095 
     80 H80        18.0560  -24.1981  -42.9316 H         1 UNK         0.0454 
     81 H81        17.7351  -22.6084  -44.8326 H         1 UNK         0.0851 
     82 H82        16.3484  -23.6744  -44.7002 H         1 UNK         0.0851 
     83 H83        17.5554  -23.9507  -45.9552 H         1 UNK         0.0851 
     84 H84        18.3583  -26.5549  -44.5735 H         1 UNK         0.2976 
     85 H85        22.6654  -24.1029  -42.5266 H         1 UNK         0.3116 
     86 H86        23.0786  -25.5135  -40.1315 H         1 UNK         0.0646 
     87 H87        24.3233  -23.4590  -39.4311 H         1 UNK         0.0847 
     88 H88        24.3643  -22.9007  -41.0971 H         1 UNK         0.0847 
     89 H89        22.8251  -23.0489  -40.2464 H         1 UNK         0.0847 
     90 H90        25.2003  -25.2842  -42.9031 H         1 UNK         0.3040 
     91 H91        27.6142  -26.2115  -41.5930 H         1 UNK         0.1015 
     92 H92        28.4168  -26.4911  -43.9400 H         1 UNK         0.0786 
     93 H93        27.6832  -24.9125  -43.7162 H         1 UNK         0.0786 
     94 H94        26.7970  -26.1890  -44.5526 H         1 UNK         0.0786 
     95 H95        24.7233  -27.7907  -42.7738 H         1 UNK         0.3172 
     96 H96        25.9891  -30.4844  -42.8251 H         1 UNK         0.0595 
     97 H97        23.1459  -29.6179  -43.5840 H         1 UNK         0.0839 
     98 H98        23.8215  -31.2312  -43.7359 H         1 UNK         0.0839 
     99 H99        24.4618  -29.9217  -44.7145 H         1 UNK         0.0839 
    100 H100       23.2385  -28.7278  -41.3932 H         1 UNK         0.2998 
    101 H101       22.1062  -28.7371  -39.5378 H         1 UNK         0.0822 
    102 H102       23.3221  -29.0579  -37.3905 H         1 UNK         0.0787 
    103 H103       24.6521  -29.8345  -38.2372 H         1 UNK         0.0787 
    104 H104       24.2841  -28.1367  -38.5344 H         1 UNK         0.0787 
    105 H105       23.5700  -31.9023  -39.9908 H         1 UNK         0.3055 
    106 H106       22.3744  -33.3976  -38.0325 H         1 UNK         0.1106 
    107 H107       24.2287  -34.1879  -39.4761 H         1 UNK         0.0828 
    108 H108       22.9296  -35.3685  -39.4816 H         1 UNK         0.0828 
    109 H109       23.1439  -34.2998  -40.8618 H         1 UNK         0.0828 
    110 H110       20.7789  -32.4335  -41.0136 H         1 UNK         0.2931 
    111 H111       18.5390  -34.2633  -40.6960 H         1 UNK         0.0412 
    112 H112       19.2839  -31.3859  -38.9204 H         1 UNK         0.3472 
    113 H113       17.6331  -31.0363  -38.4698 H         1 UNK         0.3472 
    114 H114       17.5092  -33.1003  -42.5903 H         1 UNK         0.0970 
    115 H115       18.7061  -31.8444  -42.5414 H         1 UNK         0.0970 
    116 H116       21.1852  -32.1162  -43.4344 H         1 UNK         0.0612 
    117 H117       21.4240  -33.1676  -44.8071 H         1 UNK         0.0612 
@<TRIPOS>BOND
     1    1    2 1    
     2    1   62 1    
     3    1   63 1    
     4    1   64 1    
     5    2    3 2    
     6    2    4 am   BACKBONE|DICT|INTERRES
     7    4    5 1    
     8    4   65 1    
     9    5    6 1    
    10    5   25 1    
    11    5   66 1    
    12    6    7 1    
    13    6   67 1    
    14    6   68 1    
    15    7    8 1    
    16    8    9 1    
    17    8   69 1    
    18    8   70 1    
    19    9   10 ar   
    20    9   14 ar   
    21   10   11 ar   
    22   10   71 1    
    23   11   12 ar   
    24   11   61 1    
    25   12   13 ar   
    26   12   72 1    
    27   13   14 ar   
    28   13   15 1    
    29   14   73 1    
    30   15   16 1    
    31   15   74 1    
    32   15   75 1    
    33   16   17 1    
    34   17   18 1    
    35   17   76 1    
    36   17   77 1    
    37   18   19 1    
    38   18   27 1    
    39   18   78 1    
    40   19   20 am   BACKBONE|DICT|INTERRES
    41   19   79 1    
    42   20   21 2    
    43   20   22 1    
    44   22   23 1    
    45   22   24 1    
    46   22   80 1    
    47   23   81 1    
    48   23   82 1    
    49   23   83 1    
    50   24   25 am   BACKBONE|DICT|INTERRES
    51   24   84 1    
    52   25   26 2    
    53   27   28 2    
    54   27   29 am   BACKBONE|DICT|INTERRES
    55   29   30 1    
    56   29   85 1    
    57   30   31 1    
    58   30   32 1    
    59   30   86 1    
    60   31   87 1    
    61   31   88 1    
    62   31   89 1    
    63   32   33 2    
    64   32   34 am   BACKBONE|DICT|INTERRES
    65   34   35 1    
    66   34   90 1    
    67   35   36 1    
    68   35   37 1    
    69   35   91 1    
    70   36   92 1    
    71   36   93 1    
    72   36   94 1    
    73   37   38 2    
    74   37   39 am   BACKBONE|DICT|INTERRES
    75   39   40 1    
    76   39   95 1    
    77   40   41 1    
    78   40   42 1    
    79   40   96 1    
    80   41   97 1    
    81   41   98 1    
    82   41   99 1    
    83   42   43 2    
    84   42   44 am   BACKBONE|DICT|INTERRES
    85   44   45 1    
    86   44  100 1    
    87   45   46 1    
    88   45   47 1    
    89   45  101 1    
    90   46  102 1    
    91   46  103 1    
    92   46  104 1    
    93   47   48 2    
    94   47   49 am   BACKBONE|DICT|INTERRES
    95   49   50 1    
    96   49  105 1    
    97   50   51 1    
    98   50   52 1    
    99   50  106 1    
   100   51  107 1    
   101   51  108 1    
   102   51  109 1    
   103   52   53 2    
   104   52   54 am   BACKBONE|DICT|INTERRES
   105   54   55 1    
   106   54  110 1    
   107   55   56 1    
   108   55   59 1    
   109   55  111 1    
   110   56   57 am   BACKBONE|DICT|INTERRES
   111   56   58 2    
   112   57  112 1    
   113   57  113 1    
   114   59   60 1    
   115   59  114 1    
   116   59  115 1    
   117   60   61 1    
   118   61  116 1    
   119   61  117 1    
@<TRIPOS>SUBSTRUCTURE
     1 UNK         1 GROUP             0       ****    0 ROOT    
