@<TRIPOS>MOLECULE
3R8
117   119    1
SMALL
USER_CHARGES


@<TRIPOS>ATOM
      1 CA         20.6555  -28.1627  -40.2272 C.3       0 UNK        -0.2013 
      2 C          19.6062  -27.2150  -40.7867 C.2       0 UNK         0.4866 
      3 O          19.0354  -26.4285  -40.0303 O.2       0 UNK        -0.5176 
      4 N          19.3579  -27.2792  -42.0995 N.am      1 UNK        -0.4884 
      5 CA         18.4850  -26.3573  -42.8352 C.3       1 UNK         0.0853 
      6 C6         17.4159  -27.1201  -43.6682 C.3       10 UNK        -0.0849 
      7 S7         16.2601  -28.0802  -42.6359 S.3       10 UNK        -0.2776 
      8 C8         15.2769  -28.9420  -43.9106 C.3       10 UNK         0.0316 
      9 C9         16.1225  -29.9198  -44.7152 C.ar      10 UNK        -0.0863 
     10 C10        16.6809  -31.0351  -44.0844 C.ar      10 UNK        -0.1009 
     11 C11        17.5233  -31.8998  -44.7870 C.ar      10 UNK        -0.0712 
     12 C12        17.7589  -31.6768  -46.1451 C.ar      10 UNK        -0.0894 
     13 C13        17.2109  -30.5624  -46.7883 C.ar      10 UNK        -0.0745 
     14 C14        16.3835  -29.6914  -46.0716 C.ar      10 UNK        -0.0972 
     15 C15        17.5854  -30.2688  -48.2362 C.3       10 UNK         0.0209 
     16 S16        18.8111  -28.9187  -48.3946 S.3       10 UNK        -0.2568 
     17 C17        20.0916  -29.3726  -47.1660 C.3       10 UNK        -0.0983 
     18 CA         21.0053  -28.2040  -46.7058 C.3       3 UNK         0.0876 
     19 N          20.2640  -26.9653  -46.4895 N.am      3 UNK        -0.4424 
     20 C          20.7882  -25.7331  -46.4687 C.2       2 UNK         0.4918 
     21 O          21.9512  -25.4707  -46.7753 O.2       2 UNK        -0.4875 
     22 CA         19.8508  -24.6131  -45.9751 C.3       2 UNK         0.0481 
     23 CB         19.0127  -24.0543  -47.1357 C.3       2 UNK        -0.1831 
     24 N          18.9642  -25.1017  -44.9127 N.am      2 UNK        -0.4498 
     25 C          19.4028  -25.4605  -43.6958 C.2       1 UNK         0.5027 
     26 O          20.5139  -25.1364  -43.2688 O.2       1 UNK        -0.4969 
     27 C          21.6863  -28.5906  -45.3773 C.2       3 UNK         0.5005 
     28 O          21.0068  -28.5885  -44.3441 O.2       3 UNK        -0.5279 
     29 N          22.9806  -28.9454  -45.4393 N.am      4 UNK        -0.4463 
     30 CA         23.8125  -29.4803  -44.3483 C.3       4 UNK         0.0283 
     31 CB         23.5125  -30.9783  -44.1539 C.3       4 UNK        -0.1875 
     32 C          23.6965  -28.6724  -43.0396 C.2       4 UNK         0.4949 
     33 O          23.3816  -29.2283  -41.9848 O.2       4 UNK        -0.5039 
     34 N          23.9138  -27.3554  -43.1688 N.am      5 UNK        -0.4663 
     35 CA         23.6369  -26.3228  -42.1642 C.3       5 UNK         0.0242 
     36 CB         23.9364  -24.9444  -42.7749 C.3       5 UNK        -0.1982 
     37 C          24.3697  -26.4822  -40.8217 C.2       5 UNK         0.5017 
     38 O          23.8961  -25.9509  -39.8165 O.2       5 UNK        -0.5012 
     39 N          25.4841  -27.2252  -40.8061 N.am      6 UNK        -0.4439 
     40 CA         26.2734  -27.5695  -39.6195 C.3       6 UNK         0.0297 
     41 CB         27.6881  -27.9818  -40.0681 C.3       6 UNK        -0.2006 
     42 C          25.5916  -28.6448  -38.7438 C.2       6 UNK         0.4892 
     43 O          26.2032  -29.6701  -38.4422 O.2       6 UNK        -0.5089 
     44 N          24.3273  -28.3960  -38.3733 N.am      7 UNK        -0.4243 
     45 CA         23.4323  -29.1650  -37.4943 C.3       7 UNK         0.0196 
     46 CB         24.0020  -29.2145  -36.0625 C.3       7 UNK        -0.2007 
     47 C          23.0342  -30.5784  -37.9688 C.2       7 UNK         0.5020 
     48 O          22.0993  -31.1426  -37.4006 O.2       7 UNK        -0.5147 
     49 N          23.7157  -31.1362  -38.9770 N.am      8 UNK        -0.4734 
     50 CA         23.5717  -32.5206  -39.4432 C.3       8 UNK         0.0238 
     51 CB         24.6329  -32.8037  -40.5166 C.3       8 UNK        -0.1912 
     52 C          22.1660  -32.8941  -39.9459 C.2       8 UNK         0.5038 
     53 O          21.7300  -34.0218  -39.7100 O.2       8 UNK        -0.5046 
     54 N          21.4825  -31.9445  -40.5958 N.am      9 UNK        -0.4200 
     55 CA         20.0711  -32.0626  -41.0030 C.3       9 UNK         0.0839 
     56 C          19.0555  -31.5929  -39.9187 C.2       9 UNK         0.5513 
     57 N          19.4696  -31.2473  -38.7054 N.am      9 UNK        -0.7519 
     58 O          17.8547  -31.5655  -40.1740 O.2       9 UNK        -0.4960 
     59 C59        19.8228  -31.4075  -42.3922 C.3       10 UNK        -0.0876 
     60 S60        19.9768  -32.6302  -43.7403 S.3       10 UNK        -0.2414 
     61 C61        18.2304  -33.0402  -44.0714 C.3       10 UNK         0.0169 
     62 H62        20.2644  -28.6832  -39.3546 H         1 UNK         0.0903 
     63 H63        20.9610  -28.9049  -40.9619 H         1 UNK         0.0903 
     64 H64        21.5390  -27.6052  -39.9199 H         1 UNK         0.0903 
     65 H65        19.9172  -27.8869  -42.6920 H         1 UNK         0.3096 
     66 H66        17.9647  -25.6865  -42.1484 H         1 UNK         0.1121 
     67 H67        16.8047  -26.4329  -44.2552 H         1 UNK         0.0849 
     68 H68        17.9029  -27.7975  -44.3727 H         1 UNK         0.0849 
     69 H69        14.4665  -29.4870  -43.4246 H         1 UNK         0.0865 
     70 H70        14.8031  -28.2053  -44.5613 H         1 UNK         0.0865 
     71 H71        16.4995  -31.1980  -43.0302 H         1 UNK         0.1346 
     72 H72        18.4249  -32.3369  -46.6840 H         1 UNK         0.1412 
     73 H73        15.9758  -28.8184  -46.5631 H         1 UNK         0.1426 
     74 H74        17.9864  -31.1634  -48.7150 H         1 UNK         0.0716 
     75 H75        16.6888  -30.0007  -48.7968 H         1 UNK         0.0716 
     76 H76        19.5904  -29.7891  -46.2939 H         1 UNK         0.0695 
     77 H77        20.6948  -30.1835  -47.5775 H         1 UNK         0.0695 
     78 H78        21.7609  -28.0266  -47.4741 H         1 UNK         0.0983 
     79 H79        19.3030  -27.0869  -46.2147 H         1 UNK         0.3095 
     80 H80        20.4657  -23.8040  -45.5751 H         1 UNK         0.0454 
     81 H81        18.3765  -23.2327  -46.8063 H         1 UNK         0.0851 
     82 H82        19.6561  -23.6663  -47.9266 H         1 UNK         0.0851 
     83 H83        18.3736  -24.8172  -47.5823 H         1 UNK         0.0851 
     84 H84        18.0201  -25.3356  -45.1825 H         1 UNK         0.2976 
     85 H85        23.4428  -28.8824  -46.3363 H         1 UNK         0.3116 
     86 H86        24.8495  -29.3930  -44.6760 H         1 UNK         0.0646 
     87 H87        24.2336  -31.4325  -43.4767 H         1 UNK         0.0847 
     88 H88        23.5694  -31.5243  -45.0953 H         1 UNK         0.0847 
     89 H89        22.5206  -31.1382  -43.7353 H         1 UNK         0.0847 
     90 H90        24.1568  -27.0165  -44.0886 H         1 UNK         0.3040 
     91 H91        22.5681  -26.3719  -41.9464 H         1 UNK         0.1015 
     92 H92        24.9872  -24.8425  -43.0490 H         1 UNK         0.0786 
     93 H93        23.7022  -24.1453  -42.0699 H         1 UNK         0.0786 
     94 H94        23.3347  -24.7680  -43.6672 H         1 UNK         0.0786 
     95 H95        25.7640  -27.6540  -41.6762 H         1 UNK         0.3172 
     96 H96        26.3719  -26.6746  -39.0014 H         1 UNK         0.0595 
     97 H97        27.6702  -28.8790  -40.6881 H         1 UNK         0.0839 
     98 H98        28.3254  -28.1928  -39.2082 H         1 UNK         0.0839 
     99 H99        28.1721  -27.1883  -40.6379 H         1 UNK         0.0839 
    100 H100       23.9386  -27.5248  -38.7252 H         1 UNK         0.2998 
    101 H101       22.5027  -28.5948  -37.4574 H         1 UNK         0.0822 
    102 H102       24.2040  -28.2138  -35.6806 H         1 UNK         0.0787 
    103 H103       23.2969  -29.6851  -35.3757 H         1 UNK         0.0787 
    104 H104       24.9296  -29.7860  -36.0151 H         1 UNK         0.0787 
    105 H105       24.4974  -30.6102  -39.3469 H         1 UNK         0.3055 
    106 H106       23.7782  -33.1680  -38.5880 H         1 UNK         0.1106 
    107 H107       24.5319  -33.8136  -40.9168 H         1 UNK         0.0828 
    108 H108       24.5496  -32.1081  -41.3498 H         1 UNK         0.0828 
    109 H109       25.6403  -32.7162  -40.1091 H         1 UNK         0.0828 
    110 H110       21.9295  -31.0500  -40.7428 H         1 UNK         0.2931 
    111 H111       19.8380  -33.1246  -41.1000 H         1 UNK         0.0412 
    112 H112       18.7841  -30.9643  -38.0236 H         1 UNK         0.3472 
    113 H113       20.4453  -31.3075  -38.4337 H         1 UNK         0.3472 
    114 H114       18.8452  -30.9312  -42.4586 H         1 UNK         0.0970 
    115 H115       20.5307  -30.5995  -42.5773 H         1 UNK         0.0970 
    116 H116       18.1883  -33.9387  -44.6885 H         1 UNK         0.0612 
    117 H117       17.7290  -33.2850  -43.1335 H         1 UNK         0.0612 
@<TRIPOS>BOND
     1    1    2 1    
     2    1   62 1    
     3    1   63 1    
     4    1   64 1    
     5    2    3 2    
     6    2    4 am   BACKBONE|DICT|INTERRES
     7    4    5 1    
     8    4   65 1    
     9    5    6 1    
    10    5   25 1    
    11    5   66 1    
    12    6    7 1    
    13    6   67 1    
    14    6   68 1    
    15    7    8 1    
    16    8    9 1    
    17    8   69 1    
    18    8   70 1    
    19    9   10 ar   
    20    9   14 ar   
    21   10   11 ar   
    22   10   71 1    
    23   11   12 ar   
    24   11   61 1    
    25   12   13 ar   
    26   12   72 1    
    27   13   14 ar   
    28   13   15 1    
    29   14   73 1    
    30   15   16 1    
    31   15   74 1    
    32   15   75 1    
    33   16   17 1    
    34   17   18 1    
    35   17   76 1    
    36   17   77 1    
    37   18   19 1    
    38   18   27 1    
    39   18   78 1    
    40   19   20 am   BACKBONE|DICT|INTERRES
    41   19   79 1    
    42   20   21 2    
    43   20   22 1    
    44   22   23 1    
    45   22   24 1    
    46   22   80 1    
    47   23   81 1    
    48   23   82 1    
    49   23   83 1    
    50   24   25 am   BACKBONE|DICT|INTERRES
    51   24   84 1    
    52   25   26 2    
    53   27   28 2    
    54   27   29 am   BACKBONE|DICT|INTERRES
    55   29   30 1    
    56   29   85 1    
    57   30   31 1    
    58   30   32 1    
    59   30   86 1    
    60   31   87 1    
    61   31   88 1    
    62   31   89 1    
    63   32   33 2    
    64   32   34 am   BACKBONE|DICT|INTERRES
    65   34   35 1    
    66   34   90 1    
    67   35   36 1    
    68   35   37 1    
    69   35   91 1    
    70   36   92 1    
    71   36   93 1    
    72   36   94 1    
    73   37   38 2    
    74   37   39 am   BACKBONE|DICT|INTERRES
    75   39   40 1    
    76   39   95 1    
    77   40   41 1    
    78   40   42 1    
    79   40   96 1    
    80   41   97 1    
    81   41   98 1    
    82   41   99 1    
    83   42   43 2    
    84   42   44 am   BACKBONE|DICT|INTERRES
    85   44   45 1    
    86   44  100 1    
    87   45   46 1    
    88   45   47 1    
    89   45  101 1    
    90   46  102 1    
    91   46  103 1    
    92   46  104 1    
    93   47   48 2    
    94   47   49 am   BACKBONE|DICT|INTERRES
    95   49   50 1    
    96   49  105 1    
    97   50   51 1    
    98   50   52 1    
    99   50  106 1    
   100   51  107 1    
   101   51  108 1    
   102   51  109 1    
   103   52   53 2    
   104   52   54 am   BACKBONE|DICT|INTERRES
   105   54   55 1    
   106   54  110 1    
   107   55   56 1    
   108   55   59 1    
   109   55  111 1    
   110   56   57 am   BACKBONE|DICT|INTERRES
   111   56   58 2    
   112   57  112 1    
   113   57  113 1    
   114   59   60 1    
   115   59  114 1    
   116   59  115 1    
   117   60   61 1    
   118   61  116 1    
   119   61  117 1    
@<TRIPOS>SUBSTRUCTURE
     1 UNK         1 GROUP             0       ****    0 ROOT    
