@<TRIPOS>MOLECULE
3R8
117   119    1
SMALL
USER_CHARGES


@<TRIPOS>ATOM
      1 CA         14.9971  -22.4650  -47.5043 C.3       0 UNK        -0.2013 
      2 C          16.2655  -23.2255  -47.1466 C.2       0 UNK         0.4866 
      3 O          17.3442  -22.8792  -47.6300 O.2       0 UNK        -0.5176 
      4 N          16.1442  -24.2650  -46.3120 N.am      1 UNK        -0.4884 
      5 CA         17.2623  -25.0787  -45.8239 C.3       1 UNK         0.0853 
      6 C6         16.7740  -26.3790  -45.1407 C.3       10 UNK        -0.0849 
      7 S7         15.9248  -27.5229  -46.2773 S.3       10 UNK        -0.2776 
      8 C8         17.2115  -28.7987  -46.5368 C.3       10 UNK         0.0316 
      9 C9         17.5333  -29.7100  -45.3448 C.ar      10 UNK        -0.0863 
     10 C10        18.4254  -30.7679  -45.5537 C.ar      10 UNK        -0.1009 
     11 C11        18.7564  -31.6457  -44.5173 C.ar      10 UNK        -0.0712 
     12 C12        18.2106  -31.4480  -43.2477 C.ar      10 UNK        -0.0894 
     13 C13        17.3272  -30.3918  -43.0147 C.ar      10 UNK        -0.0745 
     14 C14        16.9802  -29.5391  -44.0665 C.ar      10 UNK        -0.0972 
     15 C15        16.7306  -30.1907  -41.6297 C.3       10 UNK         0.0209 
     16 S16        17.9469  -29.5163  -40.4542 S.3       10 UNK        -0.2568 
     17 C17        18.1561  -27.7973  -41.0369 C.3       10 UNK        -0.0983 
     18 CA         19.5740  -27.4887  -41.5862 C.3       3 UNK         0.0876 
     19 N          19.5906  -26.1976  -42.2889 N.am      3 UNK        -0.4424 
     20 C          20.6478  -25.6228  -42.8823 C.2       2 UNK         0.4918 
     21 O          21.7893  -26.0839  -42.8504 O.2       2 UNK        -0.4875 
     22 CA         20.3495  -24.3437  -43.6817 C.3       2 UNK         0.0481 
     23 CB         21.6087  -23.7106  -44.3007 C.3       2 UNK        -0.1831 
     24 N          19.4144  -24.6999  -44.7466 N.am      2 UNK        -0.4498 
     25 C          18.1391  -24.3026  -44.8219 C.2       1 UNK         0.5027 
     26 O          17.6340  -23.4538  -44.0824 O.2       1 UNK        -0.4969 
     27 C          20.6529  -27.5856  -40.4855 C.2       3 UNK         0.5005 
     28 O          21.3873  -28.5730  -40.4380 O.2       3 UNK        -0.5279 
     29 N          20.7604  -26.5349  -39.6588 N.am      4 UNK        -0.4463 
     30 CA         21.7311  -26.4320  -38.5655 C.3       4 UNK         0.0283 
     31 CB         21.3505  -25.2507  -37.6586 C.3       4 UNK        -0.1875 
     32 C          23.1907  -26.2967  -39.0358 C.2       4 UNK         0.4949 
     33 O          24.0923  -26.7023  -38.3026 O.2       4 UNK        -0.5039 
     34 N          23.4036  -25.7305  -40.2323 N.am      5 UNK        -0.4663 
     35 CA         24.7242  -25.6134  -40.8548 C.3       5 UNK         0.0242 
     36 CB         24.7278  -24.4526  -41.8621 C.3       5 UNK        -0.1982 
     37 C          25.1397  -26.9252  -41.5364 C.2       5 UNK         0.5017 
     38 O          26.3096  -27.2998  -41.4541 O.2       5 UNK        -0.5012 
     39 N          24.1765  -27.5940  -42.1885 N.am      6 UNK        -0.4439 
     40 CA         24.3437  -28.9005  -42.8249 C.3       6 UNK         0.0297 
     41 CB         23.1104  -29.2208  -43.6859 C.3       6 UNK        -0.2006 
     42 C          24.6164  -30.0062  -41.7923 C.2       6 UNK         0.4892 
     43 O          25.6515  -30.6677  -41.8830 O.2       6 UNK        -0.5089 
     44 N          23.7031  -30.1441  -40.8181 N.am      7 UNK        -0.4243 
     45 CA         23.7206  -31.0074  -39.6296 C.3       7 UNK         0.0196 
     46 CB         24.8188  -30.5560  -38.6474 C.3       7 UNK        -0.2007 
     47 C          23.8072  -32.5212  -39.8983 C.2       7 UNK         0.5020 
     48 O          22.9244  -33.2667  -39.4724 O.2       7 UNK        -0.5147 
     49 N          24.8765  -32.9551  -40.5743 N.am      8 UNK        -0.4734 
     50 CA         25.2510  -34.3542  -40.8006 C.3       8 UNK         0.0238 
     51 CB         26.6624  -34.4006  -41.4080 C.3       8 UNK        -0.1912 
     52 C          24.2649  -35.1486  -41.6720 C.2       8 UNK         0.5038 
     53 O          24.2374  -36.3761  -41.5710 O.2       8 UNK        -0.5046 
     54 N          23.4796  -34.4496  -42.5011 N.am      9 UNK        -0.4200 
     55 CA         22.4075  -35.0354  -43.3161 C.3       9 UNK         0.0839 
     56 C          21.1276  -35.4323  -42.5200 C.2       9 UNK         0.5513 
     57 N          20.9848  -35.0619  -41.2515 N.am      9 UNK        -0.7519 
     58 O          20.2541  -36.1026  -43.0640 O.2       9 UNK        -0.4960 
     59 C59        22.1024  -34.1685  -44.5655 C.3       10 UNK        -0.0876 
     60 S60        21.3638  -32.5383  -44.1932 S.3       10 UNK        -0.2414 
     61 C61        19.6666  -32.8346  -44.7748 C.3       10 UNK         0.0169 
     62 H62        14.8360  -22.4894  -48.5818 H         1 UNK         0.0903 
     63 H63        14.1172  -22.8887  -47.0205 H         1 UNK         0.0903 
     64 H64        15.0851  -21.4235  -47.1960 H         1 UNK         0.0903 
     65 H65        15.2360  -24.5031  -45.9396 H         1 UNK         0.3096 
     66 H66        17.8826  -25.3440  -46.6835 H         1 UNK         0.1121 
     67 H67        16.0902  -26.1471  -44.3213 H         1 UNK         0.0849 
     68 H68        17.6139  -26.9066  -44.6848 H         1 UNK         0.0849 
     69 H69        16.8881  -29.4250  -47.3697 H         1 UNK         0.0865 
     70 H70        18.1290  -28.3081  -46.8652 H         1 UNK         0.0865 
     71 H71        18.8533  -30.9205  -46.5356 H         1 UNK         0.1346 
     72 H72        18.4706  -32.1200  -42.4407 H         1 UNK         0.1412 
     73 H73        16.2750  -28.7452  -43.8721 H         1 UNK         0.1426 
     74 H74        15.8578  -29.5368  -41.6673 H         1 UNK         0.0716 
     75 H75        16.3739  -31.1500  -41.2518 H         1 UNK         0.0716 
     76 H76        17.4114  -27.6023  -41.8097 H         1 UNK         0.0695 
     77 H77        17.9058  -27.1252  -40.2141 H         1 UNK         0.0695 
     78 H78        19.8153  -28.2471  -42.3348 H         1 UNK         0.0983 
     79 H79        18.7016  -25.7254  -42.3615 H         1 UNK         0.3095 
     80 H80        19.9084  -23.6195  -42.9939 H         1 UNK         0.0454 
     81 H81        22.1529  -24.4136  -44.9327 H         1 UNK         0.0851 
     82 H82        21.3552  -22.8426  -44.9092 H         1 UNK         0.0851 
     83 H83        22.2911  -23.3673  -43.5234 H         1 UNK         0.0851 
     84 H84        19.7351  -25.4213  -45.3786 H         1 UNK         0.2976 
     85 H85        20.1249  -25.7595  -39.7813 H         1 UNK         0.3116 
     86 H86        21.6650  -27.3484  -37.9747 H         1 UNK         0.0646 
     87 H87        22.0400  -25.1678  -36.8171 H         1 UNK         0.0847 
     88 H88        20.3504  -25.3738  -37.2426 H         1 UNK         0.0847 
     89 H89        21.3787  -24.3018  -38.1958 H         1 UNK         0.0847 
     90 H90        22.6071  -25.4660  -40.7952 H         1 UNK         0.3040 
     91 H91        25.4615  -25.3889  -40.0802 H         1 UNK         0.1015 
     92 H92        24.3999  -23.5210  -41.4008 H         1 UNK         0.0786 
     93 H93        24.0812  -24.6555  -42.7152 H         1 UNK         0.0786 
     94 H94        25.7321  -24.2852  -42.2534 H         1 UNK         0.0786 
     95 H95        23.2561  -27.1676  -42.2517 H         1 UNK         0.3172 
     96 H96        25.2090  -28.8390  -43.4882 H         1 UNK         0.0595 
     97 H97        23.2419  -30.1672  -44.2111 H         1 UNK         0.0839 
     98 H98        22.9448  -28.4529  -44.4418 H         1 UNK         0.0839 
     99 H99        22.2003  -29.3004  -43.0901 H         1 UNK         0.0839 
    100 H100       22.8874  -29.5331  -40.8566 H         1 UNK         0.2998 
    101 H101       22.7603  -30.8374  -39.1395 H         1 UNK         0.0822 
    102 H102       24.6771  -29.5163  -38.3513 H         1 UNK         0.0787 
    103 H103       24.8016  -31.1574  -37.7375 H         1 UNK         0.0787 
    104 H104       25.8163  -30.6452  -39.0788 H         1 UNK         0.0787 
    105 H105       25.4866  -32.2395  -40.9661 H         1 UNK         0.3055 
    106 H106       25.2796  -34.8476  -39.8265 H         1 UNK         0.1106 
    107 H107       26.9869  -35.4298  -41.5691 H         1 UNK         0.0828 
    108 H108       26.7030  -33.8903  -42.3713 H         1 UNK         0.0828 
    109 H109       27.3937  -33.9321  -40.7491 H         1 UNK         0.0828 
    110 H110       23.5503  -33.4429  -42.5048 H         1 UNK         0.2931 
    111 H111       22.7970  -35.9793  -43.7032 H         1 UNK         0.0412 
    112 H112       20.1540  -35.3340  -40.7506 H         1 UNK         0.3472 
    113 H113       21.6937  -34.5086  -40.7868 H         1 UNK         0.3472 
    114 H114       21.4561  -34.7202  -45.2506 H         1 UNK         0.0970 
    115 H115       23.0242  -33.9976  -45.1235 H         1 UNK         0.0970 
    116 H116       19.2592  -33.7140  -44.2738 H         1 UNK         0.0612 
    117 H117       19.6891  -33.0704  -45.8400 H         1 UNK         0.0612 
@<TRIPOS>BOND
     1    1    2 1    
     2    1   62 1    
     3    1   63 1    
     4    1   64 1    
     5    2    3 2    
     6    2    4 am   BACKBONE|DICT|INTERRES
     7    4    5 1    
     8    4   65 1    
     9    5    6 1    
    10    5   25 1    
    11    5   66 1    
    12    6    7 1    
    13    6   67 1    
    14    6   68 1    
    15    7    8 1    
    16    8    9 1    
    17    8   69 1    
    18    8   70 1    
    19    9   10 ar   
    20    9   14 ar   
    21   10   11 ar   
    22   10   71 1    
    23   11   12 ar   
    24   11   61 1    
    25   12   13 ar   
    26   12   72 1    
    27   13   14 ar   
    28   13   15 1    
    29   14   73 1    
    30   15   16 1    
    31   15   74 1    
    32   15   75 1    
    33   16   17 1    
    34   17   18 1    
    35   17   76 1    
    36   17   77 1    
    37   18   19 1    
    38   18   27 1    
    39   18   78 1    
    40   19   20 am   BACKBONE|DICT|INTERRES
    41   19   79 1    
    42   20   21 2    
    43   20   22 1    
    44   22   23 1    
    45   22   24 1    
    46   22   80 1    
    47   23   81 1    
    48   23   82 1    
    49   23   83 1    
    50   24   25 am   BACKBONE|DICT|INTERRES
    51   24   84 1    
    52   25   26 2    
    53   27   28 2    
    54   27   29 am   BACKBONE|DICT|INTERRES
    55   29   30 1    
    56   29   85 1    
    57   30   31 1    
    58   30   32 1    
    59   30   86 1    
    60   31   87 1    
    61   31   88 1    
    62   31   89 1    
    63   32   33 2    
    64   32   34 am   BACKBONE|DICT|INTERRES
    65   34   35 1    
    66   34   90 1    
    67   35   36 1    
    68   35   37 1    
    69   35   91 1    
    70   36   92 1    
    71   36   93 1    
    72   36   94 1    
    73   37   38 2    
    74   37   39 am   BACKBONE|DICT|INTERRES
    75   39   40 1    
    76   39   95 1    
    77   40   41 1    
    78   40   42 1    
    79   40   96 1    
    80   41   97 1    
    81   41   98 1    
    82   41   99 1    
    83   42   43 2    
    84   42   44 am   BACKBONE|DICT|INTERRES
    85   44   45 1    
    86   44  100 1    
    87   45   46 1    
    88   45   47 1    
    89   45  101 1    
    90   46  102 1    
    91   46  103 1    
    92   46  104 1    
    93   47   48 2    
    94   47   49 am   BACKBONE|DICT|INTERRES
    95   49   50 1    
    96   49  105 1    
    97   50   51 1    
    98   50   52 1    
    99   50  106 1    
   100   51  107 1    
   101   51  108 1    
   102   51  109 1    
   103   52   53 2    
   104   52   54 am   BACKBONE|DICT|INTERRES
   105   54   55 1    
   106   54  110 1    
   107   55   56 1    
   108   55   59 1    
   109   55  111 1    
   110   56   57 am   BACKBONE|DICT|INTERRES
   111   56   58 2    
   112   57  112 1    
   113   57  113 1    
   114   59   60 1    
   115   59  114 1    
   116   59  115 1    
   117   60   61 1    
   118   61  116 1    
   119   61  117 1    
@<TRIPOS>SUBSTRUCTURE
     1 UNK         1 GROUP             0       ****    0 ROOT    
