@<TRIPOS>MOLECULE
3R8
117   119    1
SMALL
USER_CHARGES


@<TRIPOS>ATOM
      1 CA         13.5978  -22.6717  -42.9310 C.3       0 UNK        -0.2013 
      2 C          14.5725  -23.3616  -43.8737 C.2       0 UNK         0.4866 
      3 O          14.8626  -22.8347  -44.9486 O.2       0 UNK        -0.5176 
      4 N          15.0728  -24.5404  -43.4851 N.am      1 UNK        -0.4884 
      5 CA         16.0809  -25.3077  -44.2230 C.3       1 UNK         0.0853 
      6 C6         16.0831  -26.8005  -43.7986 C.3       10 UNK        -0.0849 
      7 S7         16.3599  -27.0873  -42.0112 S.3       10 UNK        -0.2776 
      8 C8         18.1080  -27.6068  -41.9670 C.3       10 UNK         0.0316 
      9 C9         18.3065  -28.9888  -42.5720 C.ar      10 UNK        -0.0863 
     10 C10        17.8898  -30.1219  -41.8696 C.ar      10 UNK        -0.1009 
     11 C11        18.0585  -31.3957  -42.4156 C.ar      10 UNK        -0.0712 
     12 C12        18.6559  -31.5305  -43.6719 C.ar      10 UNK        -0.0894 
     13 C13        19.1032  -30.4109  -44.3806 C.ar      10 UNK        -0.0745 
     14 C14        18.9140  -29.1378  -43.8229 C.ar      10 UNK        -0.0972 
     15 C15        19.7737  -30.6482  -45.7372 C.3       10 UNK         0.0209 
     16 S16        20.4417  -29.1767  -46.5884 S.3       10 UNK        -0.2568 
     17 C17        21.9091  -28.8016  -45.5737 C.3       10 UNK        -0.0983 
     18 CA         22.3795  -27.3301  -45.7200 C.3       3 UNK         0.0876 
     19 N          21.4301  -26.3673  -45.1648 N.am      3 UNK        -0.4424 
     20 C          20.5510  -25.6362  -45.8529 C.2       2 UNK         0.4918 
     21 O          20.3359  -25.7540  -47.0603 O.2       2 UNK        -0.4875 
     22 CA         19.7675  -24.5944  -45.0506 C.3       2 UNK         0.0481 
     23 CB         19.9354  -23.1791  -45.6339 C.3       2 UNK        -0.1831 
     24 N          18.3627  -24.9859  -45.0527 N.am      2 UNK        -0.4498 
     25 C          17.4834  -24.6745  -44.0942 C.2       1 UNK         0.5027 
     26 O          17.7561  -23.9610  -43.1240 O.2       1 UNK        -0.4969 
     27 C          23.6943  -27.1123  -44.9561 C.2       3 UNK         0.5005 
     28 O          23.6534  -26.6847  -43.7982 O.2       3 UNK        -0.5279 
     29 N          24.8324  -27.4412  -45.5838 N.am      4 UNK        -0.4463 
     30 CA         26.1799  -27.2731  -45.0179 C.3       4 UNK         0.0283 
     31 CB         27.2289  -27.6346  -46.0820 C.3       4 UNK        -0.1875 
     32 C          26.4327  -28.0718  -43.7242 C.2       4 UNK         0.4949 
     33 O          27.2311  -27.6404  -42.8926 O.2       4 UNK        -0.5039 
     34 N          25.7360  -29.2052  -43.5710 N.am      5 UNK        -0.4663 
     35 CA         25.7534  -30.0424  -42.3693 C.3       5 UNK         0.0242 
     36 CB         25.3086  -31.4597  -42.7591 C.3       5 UNK        -0.1982 
     37 C          24.8666  -29.5034  -41.2302 C.2       5 UNK         0.5017 
     38 O          24.9921  -29.9858  -40.1037 O.2       5 UNK        -0.5012 
     39 N          23.9786  -28.5425  -41.5327 N.am      6 UNK        -0.4439 
     40 CA         22.9848  -27.9449  -40.6364 C.3       6 UNK         0.0297 
     41 CB         23.6768  -26.9854  -39.6411 C.3       6 UNK        -0.2006 
     42 C          22.0879  -29.0146  -39.9784 C.2       6 UNK         0.4892 
     43 O          21.5407  -29.8594  -40.6885 O.2       6 UNK        -0.5089 
     44 N          21.9745  -28.9810  -38.6437 N.am      7 UNK        -0.4243 
     45 CA         21.1621  -29.8873  -37.8265 C.3       7 UNK         0.0196 
     46 CB         21.1472  -29.3680  -36.3789 C.3       7 UNK        -0.2007 
     47 C          21.5890  -31.3683  -37.8645 C.2       7 UNK         0.5020 
     48 O          20.8079  -32.2166  -37.4333 O.2       7 UNK        -0.5147 
     49 N          22.7953  -31.6713  -38.3689 N.am      8 UNK        -0.4734 
     50 CA         23.2537  -33.0456  -38.6017 C.3       8 UNK         0.0238 
     51 CB         24.7887  -33.0740  -38.6794 C.3       8 UNK        -0.1912 
     52 C          22.6283  -33.6834  -39.8578 C.2       8 UNK         0.5038 
     53 O          22.6905  -34.9056  -39.9918 O.2       8 UNK        -0.5046 
     54 N          22.0489  -32.8617  -40.7455 N.am      9 UNK        -0.4200 
     55 CA         21.3005  -33.2349  -41.9594 C.3       9 UNK         0.0839 
     56 C          22.1257  -33.8770  -43.1137 C.2       9 UNK         0.5513 
     57 N          23.4027  -34.1905  -42.9421 N.am      9 UNK        -0.7519 
     58 O          21.5977  -34.0661  -44.2064 O.2       9 UNK        -0.4960 
     59 C59        20.0207  -34.0676  -41.6569 C.3       10 UNK        -0.0876 
     60 S60        18.8684  -33.2363  -40.5093 S.3       10 UNK        -0.2414 
     61 C61        17.5878  -32.6212  -41.6472 C.3       10 UNK         0.0169 
     62 H62        12.6398  -22.5186  -43.4272 H         1 UNK         0.0903 
     63 H63        13.4220  -23.2555  -42.0275 H         1 UNK         0.0903 
     64 H64        13.9882  -21.6984  -42.6349 H         1 UNK         0.0903 
     65 H65        14.8347  -24.9135  -42.5764 H         1 UNK         0.3096 
     66 H66        15.8100  -25.2678  -45.2809 H         1 UNK         0.1121 
     67 H67        16.8064  -27.3666  -44.3863 H         1 UNK         0.0849 
     68 H68        15.1163  -27.2403  -44.0482 H         1 UNK         0.0849 
     69 H69        18.4447  -27.6214  -40.9292 H         1 UNK         0.0865 
     70 H70        18.7280  -26.8652  -42.4726 H         1 UNK         0.0865 
     71 H71        17.4277  -30.0105  -40.8981 H         1 UNK         0.1346 
     72 H72        18.7886  -32.5165  -44.0960 H         1 UNK         0.1412 
     73 H73        19.2374  -28.2544  -44.3529 H         1 UNK         0.1426 
     74 H74        19.0431  -31.1122  -46.4011 H         1 UNK         0.0716 
     75 H75        20.5809  -31.3727  -45.6150 H         1 UNK         0.0716 
     76 H76        22.6968  -29.4911  -45.8833 H         1 UNK         0.0695 
     77 H77        21.6970  -29.0328  -44.5278 H         1 UNK         0.0695 
     78 H78        22.5588  -27.1041  -46.7738 H         1 UNK         0.0983 
     79 H79        21.6044  -26.1560  -44.1901 H         1 UNK         0.3095 
     80 H80        20.1413  -24.5925  -44.0239 H         1 UNK         0.0454 
     81 H81        19.4181  -22.4356  -45.0276 H         1 UNK         0.0851 
     82 H82        19.5447  -23.1118  -46.6499 H         1 UNK         0.0851 
     83 H83        20.9875  -22.8939  -45.6681 H         1 UNK         0.0851 
     84 H84        18.0866  -25.5862  -45.8193 H         1 UNK         0.2976 
     85 H85        24.7832  -27.7983  -46.5282 H         1 UNK         0.3116 
     86 H86        26.2990  -26.2162  -44.7700 H         1 UNK         0.0646 
     87 H87        28.2399  -27.4935  -45.6969 H         1 UNK         0.0847 
     88 H88        27.1328  -27.0050  -46.9668 H         1 UNK         0.0847 
     89 H89        27.1440  -28.6753  -46.3972 H         1 UNK         0.0847 
     90 H90        25.1195  -29.4907  -44.3176 H         1 UNK         0.3040 
     91 H91        26.7759  -30.0940  -41.9881 H         1 UNK         0.1015 
     92 H92        25.9514  -31.8817  -43.5318 H         1 UNK         0.0786 
     93 H93        24.2833  -31.4696  -43.1309 H         1 UNK         0.0786 
     94 H94        25.3523  -32.1334  -41.9033 H         1 UNK         0.0786 
     95 H95        23.9734  -28.1727  -42.4773 H         1 UNK         0.3172 
     96 H96        22.3259  -27.3474  -41.2680 H         1 UNK         0.0595 
     97 H97        24.3524  -27.5099  -38.9640 H         1 UNK         0.0839 
     98 H98        22.9487  -26.4406  -39.0388 H         1 UNK         0.0839 
     99 H99        24.2656  -26.2373  -40.1725 H         1 UNK         0.0839 
    100 H100       22.4882  -28.2690  -38.1453 H         1 UNK         0.2998 
    101 H101       20.1420  -29.8470  -38.2148 H         1 UNK         0.0822 
    102 H102       20.7503  -28.3541  -36.3234 H         1 UNK         0.0787 
    103 H103       20.5175  -29.9937  -35.7445 H         1 UNK         0.0787 
    104 H104       22.1468  -29.3641  -35.9423 H         1 UNK         0.0787 
    105 H105       23.3884  -30.9254  -38.7137 H         1 UNK         0.3055 
    106 H106       22.9522  -33.6600  -37.7500 H         1 UNK         0.1106 
    107 H107       25.1544  -34.0979  -38.7669 H         1 UNK         0.0828 
    108 H108       25.1635  -32.5234  -39.5408 H         1 UNK         0.0828 
    109 H109       25.2404  -32.6454  -37.7847 H         1 UNK         0.0828 
    110 H110       22.0440  -31.8673  -40.5453 H         1 UNK         0.2931 
    111 H111       20.9769  -32.2763  -42.3642 H         1 UNK         0.0412 
    112 H112       23.8276  -34.0970  -42.0341 H         1 UNK         0.3472 
    113 H113       23.9189  -34.5960  -43.7066 H         1 UNK         0.3472 
    114 H114       19.4863  -34.3063  -42.5776 H         1 UNK         0.0970 
    115 H115       20.2920  -35.0314  -41.2236 H         1 UNK         0.0970 
    116 H116       17.2838  -33.4142  -42.3321 H         1 UNK         0.0612 
    117 H117       16.6997  -32.3689  -41.0659 H         1 UNK         0.0612 
@<TRIPOS>BOND
     1    1    2 1    
     2    1   62 1    
     3    1   63 1    
     4    1   64 1    
     5    2    3 2    
     6    2    4 am   BACKBONE|DICT|INTERRES
     7    4    5 1    
     8    4   65 1    
     9    5    6 1    
    10    5   25 1    
    11    5   66 1    
    12    6    7 1    
    13    6   67 1    
    14    6   68 1    
    15    7    8 1    
    16    8    9 1    
    17    8   69 1    
    18    8   70 1    
    19    9   10 ar   
    20    9   14 ar   
    21   10   11 ar   
    22   10   71 1    
    23   11   12 ar   
    24   11   61 1    
    25   12   13 ar   
    26   12   72 1    
    27   13   14 ar   
    28   13   15 1    
    29   14   73 1    
    30   15   16 1    
    31   15   74 1    
    32   15   75 1    
    33   16   17 1    
    34   17   18 1    
    35   17   76 1    
    36   17   77 1    
    37   18   19 1    
    38   18   27 1    
    39   18   78 1    
    40   19   20 am   BACKBONE|DICT|INTERRES
    41   19   79 1    
    42   20   21 2    
    43   20   22 1    
    44   22   23 1    
    45   22   24 1    
    46   22   80 1    
    47   23   81 1    
    48   23   82 1    
    49   23   83 1    
    50   24   25 am   BACKBONE|DICT|INTERRES
    51   24   84 1    
    52   25   26 2    
    53   27   28 2    
    54   27   29 am   BACKBONE|DICT|INTERRES
    55   29   30 1    
    56   29   85 1    
    57   30   31 1    
    58   30   32 1    
    59   30   86 1    
    60   31   87 1    
    61   31   88 1    
    62   31   89 1    
    63   32   33 2    
    64   32   34 am   BACKBONE|DICT|INTERRES
    65   34   35 1    
    66   34   90 1    
    67   35   36 1    
    68   35   37 1    
    69   35   91 1    
    70   36   92 1    
    71   36   93 1    
    72   36   94 1    
    73   37   38 2    
    74   37   39 am   BACKBONE|DICT|INTERRES
    75   39   40 1    
    76   39   95 1    
    77   40   41 1    
    78   40   42 1    
    79   40   96 1    
    80   41   97 1    
    81   41   98 1    
    82   41   99 1    
    83   42   43 2    
    84   42   44 am   BACKBONE|DICT|INTERRES
    85   44   45 1    
    86   44  100 1    
    87   45   46 1    
    88   45   47 1    
    89   45  101 1    
    90   46  102 1    
    91   46  103 1    
    92   46  104 1    
    93   47   48 2    
    94   47   49 am   BACKBONE|DICT|INTERRES
    95   49   50 1    
    96   49  105 1    
    97   50   51 1    
    98   50   52 1    
    99   50  106 1    
   100   51  107 1    
   101   51  108 1    
   102   51  109 1    
   103   52   53 2    
   104   52   54 am   BACKBONE|DICT|INTERRES
   105   54   55 1    
   106   54  110 1    
   107   55   56 1    
   108   55   59 1    
   109   55  111 1    
   110   56   57 am   BACKBONE|DICT|INTERRES
   111   56   58 2    
   112   57  112 1    
   113   57  113 1    
   114   59   60 1    
   115   59  114 1    
   116   59  115 1    
   117   60   61 1    
   118   61  116 1    
   119   61  117 1    
@<TRIPOS>SUBSTRUCTURE
     1 UNK         1 GROUP             0       ****    0 ROOT    
