@<TRIPOS>MOLECULE
3R8
117   119    1
SMALL
USER_CHARGES


@<TRIPOS>ATOM
      1 CA         14.5581  -23.2289  -42.1825 C.3       0 UNK        -0.2013 
      2 C          15.2052  -23.5696  -43.5164 C.2       0 UNK         0.4866 
      3 O          15.2594  -22.7206  -44.4062 O.2       0 UNK        -0.5176 
      4 N          15.6984  -24.8062  -43.6630 N.am      1 UNK        -0.4884 
      5 CA         16.3671  -25.3077  -44.8713 C.3       1 UNK         0.0853 
      6 C6         16.3587  -26.8583  -44.9347 C.3       10 UNK        -0.0849 
      7 S7         17.0410  -27.6695  -43.4453 S.3       10 UNK        -0.2776 
      8 C8         16.8073  -29.4318  -43.8516 C.3       10 UNK         0.0316 
      9 C9         18.1211  -30.0938  -44.2426 C.ar      10 UNK        -0.0863 
     10 C10        18.8011  -30.9069  -43.3292 C.ar      10 UNK        -0.1009 
     11 C11        20.0182  -31.5006  -43.6770 C.ar      10 UNK        -0.0712 
     12 C12        20.5576  -31.2727  -44.9448 C.ar      10 UNK        -0.0894 
     13 C13        19.8919  -30.4590  -45.8632 C.ar      10 UNK        -0.0745 
     14 C14        18.6635  -29.8882  -45.5144 C.ar      10 UNK        -0.0972 
     15 C15        20.5197  -30.1815  -47.2211 C.3       10 UNK         0.0209 
     16 S16        21.9034  -28.9991  -47.0974 S.3       10 UNK        -0.2568 
     17 C17        21.0374  -27.4826  -46.5637 C.3       10 UNK        -0.0983 
     18 CA         21.6086  -26.7482  -45.3215 C.3       3 UNK         0.0876 
     19 N          20.7301  -25.6200  -44.9980 N.am      3 UNK        -0.4424 
     20 C          20.9145  -24.6694  -44.0767 C.2       2 UNK         0.4918 
     21 O          21.9175  -24.5957  -43.3689 O.2       2 UNK        -0.4875 
     22 CA         19.7660  -23.6615  -43.8703 C.3       2 UNK         0.0481 
     23 CB         19.9424  -22.4337  -44.7833 C.3       2 UNK        -0.1831 
     24 N          18.4106  -24.2317  -43.9868 N.am      2 UNK        -0.4498 
     25 C          17.7916  -24.7445  -45.0643 C.2       1 UNK         0.5027 
     26 O          18.3143  -24.8208  -46.1772 O.2       1 UNK        -0.4969 
     27 C          21.9003  -27.6512  -44.0933 C.2       3 UNK         0.5005 
     28 O          23.0018  -28.1939  -43.9900 O.2       3 UNK        -0.5279 
     29 N          20.9726  -27.6941  -43.1220 N.am      4 UNK        -0.4463 
     30 CA         21.1334  -28.3155  -41.7994 C.3       4 UNK         0.0283 
     31 CB         19.8091  -28.2065  -41.0261 C.3       4 UNK        -0.1875 
     32 C          22.2892  -27.7570  -40.9395 C.2       4 UNK         0.4949 
     33 O          22.6384  -28.3761  -39.9352 O.2       4 UNK        -0.5039 
     34 N          22.8742  -26.6121  -41.3210 N.am      5 UNK        -0.4663 
     35 CA         24.0967  -26.0814  -40.7140 C.3       5 UNK         0.0242 
     36 CB         24.2625  -24.6057  -41.1099 C.3       5 UNK        -0.1982 
     37 C          25.3589  -26.8819  -41.0912 C.2       5 UNK         0.5017 
     38 O          26.3441  -26.8068  -40.3559 O.2       5 UNK        -0.5012 
     39 N          25.3301  -27.6130  -42.2181 N.am      6 UNK        -0.4439 
     40 CA         26.4616  -28.4085  -42.7052 C.3       6 UNK         0.0297 
     41 CB         26.2817  -28.7074  -44.2024 C.3       6 UNK        -0.2006 
     42 C          26.6577  -29.7136  -41.9158 C.2       6 UNK         0.4892 
     43 O          27.8002  -30.1047  -41.6737 O.2       6 UNK        -0.5089 
     44 N          25.5507  -30.3567  -41.5292 N.am      7 UNK        -0.4243 
     45 CA         25.4934  -31.6007  -40.7663 C.3       7 UNK         0.0196 
     46 CB         25.8999  -32.7972  -41.6493 C.3       7 UNK        -0.2007 
     47 C          24.0604  -31.7740  -40.2553 C.2       7 UNK         0.5020 
     48 O          23.1347  -31.2414  -40.8677 O.2       7 UNK        -0.5147 
     49 N          23.8945  -32.5236  -39.1601 N.am      8 UNK        -0.4734 
     50 CA         22.5854  -32.8438  -38.5852 C.3       8 UNK         0.0238 
     51 CB         22.7744  -33.3174  -37.1344 C.3       8 UNK        -0.1912 
     52 C          21.8513  -33.9160  -39.4094 C.2       8 UNK         0.5038 
     53 O          22.4963  -34.8310  -39.9283 O.2       8 UNK        -0.5046 
     54 N          20.5208  -33.8002  -39.4688 N.am      9 UNK        -0.4200 
     55 CA         19.5975  -34.7461  -40.1108 C.3       9 UNK         0.0839 
     56 C          18.4432  -35.0851  -39.1347 C.2       9 UNK         0.5513 
     57 N          17.8848  -36.2837  -39.2281 N.am      9 UNK        -0.7519 
     58 O          18.0287  -34.2646  -38.3173 O.2       9 UNK        -0.4960 
     59 C59        19.0357  -34.1966  -41.4511 C.3       10 UNK        -0.0876 
     60 S60        20.3057  -34.1029  -42.7567 S.3       10 UNK        -0.2414 
     61 C61        20.7846  -32.3510  -42.6784 C.3       10 UNK         0.0169 
     62 H62        14.5802  -24.0712  -41.4912 H         1 UNK         0.0903 
     63 H63        15.0782  -22.3930  -41.7156 H         1 UNK         0.0903 
     64 H64        13.5178  -22.9417  -42.3332 H         1 UNK         0.0903 
     65 H65        15.6272  -25.4722  -42.9050 H         1 UNK         0.3096 
     66 H66        15.7954  -24.9503  -45.7313 H         1 UNK         0.1121 
     67 H67        15.3302  -27.2007  -45.0601 H         1 UNK         0.0849 
     68 H68        16.8948  -27.2141  -45.8167 H         1 UNK         0.0849 
     69 H69        16.3769  -29.9333  -42.9834 H         1 UNK         0.0865 
     70 H70        16.0787  -29.5483  -44.6552 H         1 UNK         0.0865 
     71 H71        18.3914  -31.0656  -42.3417 H         1 UNK         0.1346 
     72 H72        21.5100  -31.7107  -45.2109 H         1 UNK         0.1412 
     73 H73        18.1411  -29.2608  -46.2228 H         1 UNK         0.1426 
     74 H74        19.7769  -29.7977  -47.9222 H         1 UNK         0.0716 
     75 H75        20.8890  -31.1152  -47.6476 H         1 UNK         0.0716 
     76 H76        21.0473  -26.7993  -47.4145 H         1 UNK         0.0695 
     77 H77        19.9845  -27.7069  -46.3987 H         1 UNK         0.0695 
     78 H78        22.5715  -26.3207  -45.6090 H         1 UNK         0.0983 
     79 H79        19.8800  -25.5425  -45.5507 H         1 UNK         0.3095 
     80 H80        19.8450  -23.3131  -42.8394 H         1 UNK         0.0454 
     81 H81        20.9067  -21.9552  -44.6075 H         1 UNK         0.0851 
     82 H82        19.9023  -22.6983  -45.8402 H         1 UNK         0.0851 
     83 H83        19.1715  -21.6865  -44.5955 H         1 UNK         0.0851 
     84 H84        17.8849  -24.2567  -43.1239 H         1 UNK         0.2976 
     85 H85        20.0951  -27.2241  -43.2906 H         1 UNK         0.3116 
     86 H86        21.3477  -29.3729  -41.9647 H         1 UNK         0.0646 
     87 H87        19.8933  -28.6594  -40.0372 H         1 UNK         0.0847 
     88 H88        19.0029  -28.7247  -41.5409 H         1 UNK         0.0847 
     89 H89        19.5074  -27.1681  -40.8853 H         1 UNK         0.0847 
     90 H90        22.5137  -26.1134  -42.1280 H         1 UNK         0.3040 
     91 H91        23.9914  -26.1315  -39.6278 H         1 UNK         0.1015 
     92 H92        23.3933  -24.0155  -40.8187 H         1 UNK         0.0786 
     93 H93        24.4007  -24.4903  -42.1858 H         1 UNK         0.0786 
     94 H94        25.1324  -24.1652  -40.6207 H         1 UNK         0.0786 
     95 H95        24.4720  -27.6564  -42.7626 H         1 UNK         0.3172 
     96 H96        27.3702  -27.8127  -42.5936 H         1 UNK         0.0595 
     97 H97        27.1472  -29.2398  -44.5990 H         1 UNK         0.0839 
     98 H98        26.1712  -27.7905  -44.7814 H         1 UNK         0.0839 
     99 H99        25.4053  -29.3292  -44.3897 H         1 UNK         0.0839 
    100 H100       24.6400  -29.9622  -41.7358 H         1 UNK         0.2998 
    101 H101       26.1673  -31.5217  -39.9107 H         1 UNK         0.0822 
    102 H102       25.2599  -32.8797  -42.5289 H         1 UNK         0.0787 
    103 H103       26.9311  -32.7133  -41.9921 H         1 UNK         0.0787 
    104 H104       25.8197  -33.7356  -41.0992 H         1 UNK         0.0787 
    105 H105       24.6974  -32.9721  -38.7426 H         1 UNK         0.3055 
    106 H106       21.9827  -31.9319  -38.5775 H         1 UNK         0.1106 
    107 H107       23.3761  -34.2257  -37.0807 H         1 UNK         0.0828 
    108 H108       23.2619  -32.5543  -36.5273 H         1 UNK         0.0828 
    109 H109       21.8137  -33.5362  -36.6660 H         1 UNK         0.0828 
    110 H110       20.0648  -33.0633  -38.9487 H         1 UNK         0.2931 
    111 H111       20.1245  -35.6809  -40.3141 H         1 UNK         0.0412 
    112 H112       17.1238  -36.5199  -38.6098 H         1 UNK         0.3472 
    113 H113       18.2118  -36.9612  -39.9002 H         1 UNK         0.3472 
    114 H114       18.2472  -34.8505  -41.8288 H         1 UNK         0.0970 
    115 H115       18.5684  -33.2216  -41.3072 H         1 UNK         0.0970 
    116 H116       20.6508  -31.9620  -41.6684 H         1 UNK         0.0612 
    117 H117       21.8526  -32.2844  -42.8893 H         1 UNK         0.0612 
@<TRIPOS>BOND
     1    1    2 1    
     2    1   62 1    
     3    1   63 1    
     4    1   64 1    
     5    2    3 2    
     6    2    4 am   BACKBONE|DICT|INTERRES
     7    4    5 1    
     8    4   65 1    
     9    5    6 1    
    10    5   25 1    
    11    5   66 1    
    12    6    7 1    
    13    6   67 1    
    14    6   68 1    
    15    7    8 1    
    16    8    9 1    
    17    8   69 1    
    18    8   70 1    
    19    9   10 ar   
    20    9   14 ar   
    21   10   11 ar   
    22   10   71 1    
    23   11   12 ar   
    24   11   61 1    
    25   12   13 ar   
    26   12   72 1    
    27   13   14 ar   
    28   13   15 1    
    29   14   73 1    
    30   15   16 1    
    31   15   74 1    
    32   15   75 1    
    33   16   17 1    
    34   17   18 1    
    35   17   76 1    
    36   17   77 1    
    37   18   19 1    
    38   18   27 1    
    39   18   78 1    
    40   19   20 am   BACKBONE|DICT|INTERRES
    41   19   79 1    
    42   20   21 2    
    43   20   22 1    
    44   22   23 1    
    45   22   24 1    
    46   22   80 1    
    47   23   81 1    
    48   23   82 1    
    49   23   83 1    
    50   24   25 am   BACKBONE|DICT|INTERRES
    51   24   84 1    
    52   25   26 2    
    53   27   28 2    
    54   27   29 am   BACKBONE|DICT|INTERRES
    55   29   30 1    
    56   29   85 1    
    57   30   31 1    
    58   30   32 1    
    59   30   86 1    
    60   31   87 1    
    61   31   88 1    
    62   31   89 1    
    63   32   33 2    
    64   32   34 am   BACKBONE|DICT|INTERRES
    65   34   35 1    
    66   34   90 1    
    67   35   36 1    
    68   35   37 1    
    69   35   91 1    
    70   36   92 1    
    71   36   93 1    
    72   36   94 1    
    73   37   38 2    
    74   37   39 am   BACKBONE|DICT|INTERRES
    75   39   40 1    
    76   39   95 1    
    77   40   41 1    
    78   40   42 1    
    79   40   96 1    
    80   41   97 1    
    81   41   98 1    
    82   41   99 1    
    83   42   43 2    
    84   42   44 am   BACKBONE|DICT|INTERRES
    85   44   45 1    
    86   44  100 1    
    87   45   46 1    
    88   45   47 1    
    89   45  101 1    
    90   46  102 1    
    91   46  103 1    
    92   46  104 1    
    93   47   48 2    
    94   47   49 am   BACKBONE|DICT|INTERRES
    95   49   50 1    
    96   49  105 1    
    97   50   51 1    
    98   50   52 1    
    99   50  106 1    
   100   51  107 1    
   101   51  108 1    
   102   51  109 1    
   103   52   53 2    
   104   52   54 am   BACKBONE|DICT|INTERRES
   105   54   55 1    
   106   54  110 1    
   107   55   56 1    
   108   55   59 1    
   109   55  111 1    
   110   56   57 am   BACKBONE|DICT|INTERRES
   111   56   58 2    
   112   57  112 1    
   113   57  113 1    
   114   59   60 1    
   115   59  114 1    
   116   59  115 1    
   117   60   61 1    
   118   61  116 1    
   119   61  117 1    
@<TRIPOS>SUBSTRUCTURE
     1 UNK         1 GROUP             0       ****    0 ROOT    
