@<TRIPOS>MOLECULE
3R8
117   119    1
SMALL
USER_CHARGES


@<TRIPOS>ATOM
      1 CA         19.3589  -26.1561  -50.4805 C.3       0 UNK        -0.2013 
      2 C          19.9903  -27.0032  -49.3862 C.2       0 UNK         0.4866 
      3 O          21.2127  -27.1416  -49.3461 O.2       0 UNK        -0.5176 
      4 N          19.1669  -27.5693  -48.4948 N.am      1 UNK        -0.4884 
      5 CA         19.5866  -28.4242  -47.3759 C.3       1 UNK         0.0853 
      6 C6         18.4642  -29.3958  -46.9060 C.3       10 UNK        -0.0849 
      7 S7         16.7450  -28.7588  -46.9500 S.3       10 UNK        -0.2776 
      8 C8         16.6153  -27.6748  -45.4821 C.3       10 UNK         0.0316 
      9 C9         16.6253  -28.3432  -44.1038 C.ar      10 UNK        -0.0863 
     10 C10        16.7692  -29.7225  -43.9110 C.ar      10 UNK        -0.1009 
     11 C11        16.8511  -30.2650  -42.6235 C.ar      10 UNK        -0.0712 
     12 C12        16.7328  -29.4213  -41.5143 C.ar      10 UNK        -0.0894 
     13 C13        16.5526  -28.0452  -41.6876 C.ar      10 UNK        -0.0745 
     14 C14        16.4969  -27.5198  -42.9811 C.ar      10 UNK        -0.0972 
     15 C15        16.4382  -27.1176  -40.4844 C.3       10 UNK         0.0209 
     16 S16        18.0042  -26.9786  -39.5613 S.3       10 UNK        -0.2568 
     17 C17        19.1068  -26.1083  -40.7357 C.3       10 UNK        -0.0983 
     18 CA         19.8350  -27.0510  -41.7400 C.3       3 UNK         0.0876 
     19 N          20.4525  -26.3628  -42.8687 N.am      3 UNK        -0.4424 
     20 C          19.8249  -25.6906  -43.8388 C.2       2 UNK         0.4918 
     21 O          18.6493  -25.3326  -43.7892 O.2       2 UNK        -0.4875 
     22 CA         20.6164  -25.4117  -45.1304 C.3       2 UNK         0.0481 
     23 CB         22.1528  -25.4563  -44.9593 C.3       2 UNK        -0.1831 
     24 N          20.1719  -26.3161  -46.2004 N.am      2 UNK        -0.4498 
     25 C          20.2173  -27.6599  -46.1907 C.2       1 UNK         0.5027 
     26 O          20.7319  -28.3148  -45.2846 O.2       1 UNK        -0.4969 
     27 C          20.9195  -27.9327  -41.0939 C.2       3 UNK         0.5005 
     28 O          22.0993  -27.8139  -41.4419 O.2       3 UNK        -0.5279 
     29 N          20.5033  -28.7821  -40.1458 N.am      4 UNK        -0.4463 
     30 CA         21.3112  -29.7393  -39.3800 C.3       4 UNK         0.0283 
     31 CB         20.3787  -30.5156  -38.4360 C.3       4 UNK        -0.1875 
     32 C          22.4808  -29.1274  -38.5815 C.2       4 UNK         0.4949 
     33 O          23.3858  -29.8574  -38.1785 O.2       4 UNK        -0.5039 
     34 N          22.4448  -27.8079  -38.3565 N.am      5 UNK        -0.4663 
     35 CA         23.5286  -27.0366  -37.7472 C.3       5 UNK         0.0242 
     36 CB         22.9542  -25.7111  -37.2201 C.3       5 UNK        -0.1982 
     37 C          24.7021  -26.7662  -38.7098 C.2       5 UNK         0.5017 
     38 O          25.7894  -26.4391  -38.2322 O.2       5 UNK        -0.5012 
     39 N          24.4680  -26.8758  -40.0258 N.am      6 UNK        -0.4439 
     40 CA         25.4412  -26.5793  -41.0799 C.3       6 UNK         0.0297 
     41 CB         24.9275  -25.4002  -41.9237 C.3       6 UNK        -0.2006 
     42 C          25.7105  -27.8006  -41.9703 C.2       6 UNK         0.4892 
     43 O          26.8729  -28.0865  -42.2609 O.2       6 UNK        -0.5089 
     44 N          24.6447  -28.4899  -42.3919 N.am      7 UNK        -0.4243 
     45 CA         24.6901  -29.6939  -43.2194 C.3       7 UNK         0.0196 
     46 CB         23.5770  -29.5943  -44.2749 C.3       7 UNK        -0.2007 
     47 C          24.4747  -30.9374  -42.3492 C.2       7 UNK         0.5020 
     48 O          24.0074  -30.8296  -41.2157 O.2       7 UNK        -0.5147 
     49 N          24.7461  -32.1201  -42.9119 N.am      8 UNK        -0.4734 
     50 CA         24.5402  -33.4252  -42.2686 C.3       8 UNK         0.0238 
     51 CB         25.4678  -34.4581  -42.9372 C.3       8 UNK        -0.1912 
     52 C          23.0604  -33.8767  -42.2586 C.2       8 UNK         0.5038 
     53 O          22.7800  -35.0500  -42.5114 O.2       8 UNK        -0.5046 
     54 N          22.1414  -32.9431  -41.9788 N.am      9 UNK        -0.4200 
     55 CA         20.6888  -33.1705  -41.8979 C.3       9 UNK         0.0839 
     56 C          20.1990  -33.6729  -40.5071 C.2       9 UNK         0.5513 
     57 N          21.0603  -33.8020  -39.5046 N.am      9 UNK        -0.7519 
     58 O          19.0189  -33.9625  -40.3334 O.2       9 UNK        -0.4960 
     59 C59        19.8901  -31.9333  -42.4059 C.3       10 UNK        -0.0876 
     60 S60        18.4422  -32.4252  -43.4038 S.3       10 UNK        -0.2414 
     61 C61        17.0435  -31.7658  -42.4346 C.3       10 UNK         0.0169 
     62 H62        18.2733  -26.1176  -50.3918 H         1 UNK         0.0903 
     63 H63        19.7395  -25.1362  -50.4328 H         1 UNK         0.0903 
     64 H64        19.6042  -26.5657  -51.4600 H         1 UNK         0.0903 
     65 H65        18.1670  -27.4371  -48.5749 H         1 UNK         0.3096 
     66 H66        20.4008  -29.0527  -47.7454 H         1 UNK         0.1121 
     67 H67        18.6838  -29.8161  -45.9235 H         1 UNK         0.0849 
     68 H68        18.4710  -30.2594  -47.5727 H         1 UNK         0.0849 
     69 H69        17.4128  -26.9344  -45.5258 H         1 UNK         0.0865 
     70 H70        15.6843  -27.1138  -45.5756 H         1 UNK         0.0865 
     71 H71        16.8370  -30.3905  -44.7564 H         1 UNK         0.1346 
     72 H72        16.7832  -29.8313  -40.5147 H         1 UNK         0.1412 
     73 H73        16.3776  -26.4531  -43.1159 H         1 UNK         0.1426 
     74 H74        15.6686  -27.5013  -39.8133 H         1 UNK         0.0716 
     75 H75        16.1100  -26.1216  -40.7860 H         1 UNK         0.0716 
     76 H76        19.8342  -25.5274  -40.1660 H         1 UNK         0.0695 
     77 H77        18.4970  -25.3735  -41.2603 H         1 UNK         0.0695 
     78 H78        19.1191  -27.7427  -42.1809 H         1 UNK         0.0983 
     79 H79        21.4180  -26.6359  -43.0036 H         1 UNK         0.3095 
     80 H80        20.3512  -24.4017  -45.4462 H         1 UNK         0.0454 
     81 H81        22.5206  -26.4434  -44.6788 H         1 UNK         0.0851 
     82 H82        22.4793  -24.7506  -44.1946 H         1 UNK         0.0851 
     83 H83        22.6539  -25.1752  -45.8854 H         1 UNK         0.0851 
     84 H84        19.7149  -25.8766  -46.9866 H         1 UNK         0.2976 
     85 H85        19.5236  -28.7343  -39.8949 H         1 UNK         0.3116 
     86 H86        21.7360  -30.4456  -40.0928 H         1 UNK         0.0646 
     87 H87        19.5874  -31.0276  -38.9833 H         1 UNK         0.0847 
     88 H88        19.9087  -29.8579  -37.7036 H         1 UNK         0.0847 
     89 H89        20.9297  -31.2771  -37.8823 H         1 UNK         0.0847 
     90 H90        21.6482  -27.2897  -38.6966 H         1 UNK         0.3040 
     91 H91        23.9258  -27.6001  -36.8996 H         1 UNK         0.1015 
     92 H92        23.7269  -25.1192  -36.7273 H         1 UNK         0.0786 
     93 H93        22.1652  -25.8834  -36.4877 H         1 UNK         0.0786 
     94 H94        22.5403  -25.1013  -38.0243 H         1 UNK         0.0786 
     95 H95        23.5553  -27.2016  -40.3312 H         1 UNK         0.3172 
     96 H96        26.3980  -26.2843  -40.6443 H         1 UNK         0.0595 
     97 H97        23.9545  -25.6141  -42.3662 H         1 UNK         0.0839 
     98 H98        25.6158  -25.1712  -42.7385 H         1 UNK         0.0839 
     99 H99        24.8280  -24.4977  -41.3204 H         1 UNK         0.0839 
    100 H100       23.7210  -28.2354  -42.0475 H         1 UNK         0.2998 
    101 H101       25.6554  -29.7786  -43.7229 H         1 UNK         0.0822 
    102 H102       23.6927  -28.7032  -44.8918 H         1 UNK         0.0787 
    103 H103       23.5840  -30.4532  -44.9469 H         1 UNK         0.0787 
    104 H104       22.5902  -29.5515  -43.8113 H         1 UNK         0.0787 
    105 H105       25.0822  -32.1381  -43.8647 H         1 UNK         0.3055 
    106 H106       24.8426  -33.3442  -41.2218 H         1 UNK         0.1106 
    107 H107       25.2055  -34.6181  -43.9837 H         1 UNK         0.0828 
    108 H108       25.4082  -35.4244  -42.4344 H         1 UNK         0.0828 
    109 H109       26.5103  -34.1420  -42.8960 H         1 UNK         0.0828 
    110 H110       22.4799  -32.0216  -41.7246 H         1 UNK         0.2931 
    111 H111       20.4754  -33.9965  -42.5791 H         1 UNK         0.0412 
    112 H112       22.0338  -33.5779  -39.6300 H         1 UNK         0.3472 
    113 H113       20.7304  -34.1397  -38.6142 H         1 UNK         0.3472 
    114 H114       19.5893  -31.2777  -41.5870 H         1 UNK         0.0970 
    115 H115       20.5119  -31.3155  -43.0564 H         1 UNK         0.0970 
    116 H116       17.1847  -32.0184  -41.3825 H         1 UNK         0.0612 
    117 H117       16.1320  -32.2726  -42.7537 H         1 UNK         0.0612 
@<TRIPOS>BOND
     1    1    2 1    
     2    1   62 1    
     3    1   63 1    
     4    1   64 1    
     5    2    3 2    
     6    2    4 am   BACKBONE|DICT|INTERRES
     7    4    5 1    
     8    4   65 1    
     9    5    6 1    
    10    5   25 1    
    11    5   66 1    
    12    6    7 1    
    13    6   67 1    
    14    6   68 1    
    15    7    8 1    
    16    8    9 1    
    17    8   69 1    
    18    8   70 1    
    19    9   10 ar   
    20    9   14 ar   
    21   10   11 ar   
    22   10   71 1    
    23   11   12 ar   
    24   11   61 1    
    25   12   13 ar   
    26   12   72 1    
    27   13   14 ar   
    28   13   15 1    
    29   14   73 1    
    30   15   16 1    
    31   15   74 1    
    32   15   75 1    
    33   16   17 1    
    34   17   18 1    
    35   17   76 1    
    36   17   77 1    
    37   18   19 1    
    38   18   27 1    
    39   18   78 1    
    40   19   20 am   BACKBONE|DICT|INTERRES
    41   19   79 1    
    42   20   21 2    
    43   20   22 1    
    44   22   23 1    
    45   22   24 1    
    46   22   80 1    
    47   23   81 1    
    48   23   82 1    
    49   23   83 1    
    50   24   25 am   BACKBONE|DICT|INTERRES
    51   24   84 1    
    52   25   26 2    
    53   27   28 2    
    54   27   29 am   BACKBONE|DICT|INTERRES
    55   29   30 1    
    56   29   85 1    
    57   30   31 1    
    58   30   32 1    
    59   30   86 1    
    60   31   87 1    
    61   31   88 1    
    62   31   89 1    
    63   32   33 2    
    64   32   34 am   BACKBONE|DICT|INTERRES
    65   34   35 1    
    66   34   90 1    
    67   35   36 1    
    68   35   37 1    
    69   35   91 1    
    70   36   92 1    
    71   36   93 1    
    72   36   94 1    
    73   37   38 2    
    74   37   39 am   BACKBONE|DICT|INTERRES
    75   39   40 1    
    76   39   95 1    
    77   40   41 1    
    78   40   42 1    
    79   40   96 1    
    80   41   97 1    
    81   41   98 1    
    82   41   99 1    
    83   42   43 2    
    84   42   44 am   BACKBONE|DICT|INTERRES
    85   44   45 1    
    86   44  100 1    
    87   45   46 1    
    88   45   47 1    
    89   45  101 1    
    90   46  102 1    
    91   46  103 1    
    92   46  104 1    
    93   47   48 2    
    94   47   49 am   BACKBONE|DICT|INTERRES
    95   49   50 1    
    96   49  105 1    
    97   50   51 1    
    98   50   52 1    
    99   50  106 1    
   100   51  107 1    
   101   51  108 1    
   102   51  109 1    
   103   52   53 2    
   104   52   54 am   BACKBONE|DICT|INTERRES
   105   54   55 1    
   106   54  110 1    
   107   55   56 1    
   108   55   59 1    
   109   55  111 1    
   110   56   57 am   BACKBONE|DICT|INTERRES
   111   56   58 2    
   112   57  112 1    
   113   57  113 1    
   114   59   60 1    
   115   59  114 1    
   116   59  115 1    
   117   60   61 1    
   118   61  116 1    
   119   61  117 1    
@<TRIPOS>SUBSTRUCTURE
     1 UNK         1 GROUP             0       ****    0 ROOT    
