@<TRIPOS>MOLECULE
3R8
117   119    1
SMALL
USER_CHARGES


@<TRIPOS>ATOM
      1 CA         19.0201  -24.2942  -50.0701 C.3       0 UNK        -0.2013 
      2 C          19.5134  -25.3629  -49.1060 C.2       0 UNK         0.4866 
      3 O          20.1121  -26.3487  -49.5373 O.2       0 UNK        -0.5176 
      4 N          19.2718  -25.1741  -47.8062 N.am      1 UNK        -0.4884 
      5 CA         19.6720  -26.0744  -46.7259 C.3       1 UNK         0.0853 
      6 C6         18.7829  -27.3468  -46.6358 C.3       10 UNK        -0.0849 
      7 S7         17.0105  -27.0145  -46.3242 S.3       10 UNK        -0.2776 
      8 C8         16.2912  -28.6724  -46.5407 C.3       10 UNK         0.0316 
      9 C9         16.7157  -29.6225  -45.4302 C.ar      10 UNK        -0.0863 
     10 C10        17.8005  -30.4827  -45.6191 C.ar      10 UNK        -0.1009 
     11 C11        18.2004  -31.3537  -44.6032 C.ar      10 UNK        -0.0712 
     12 C12        17.4887  -31.3826  -43.3997 C.ar      10 UNK        -0.0894 
     13 C13        16.4027  -30.5256  -43.1968 C.ar      10 UNK        -0.0745 
     14 C14        16.0216  -29.6465  -44.2164 C.ar      10 UNK        -0.0972 
     15 C15        15.6265  -30.5654  -41.8860 C.3       10 UNK         0.0209 
     16 S16        16.6324  -30.0709  -40.4474 S.3       10 UNK        -0.2568 
     17 C17        17.0187  -28.3277  -40.8197 C.3       10 UNK        -0.0983 
     18 CA         18.5472  -28.0743  -40.8475 C.3       3 UNK         0.0876 
     19 N          18.8903  -26.9564  -41.7295 N.am      3 UNK        -0.4424 
     20 C          20.1346  -26.5866  -42.0561 C.2       2 UNK         0.4918 
     21 O          21.1525  -27.1894  -41.7061 O.2       2 UNK        -0.4875 
     22 CA         20.2442  -25.3795  -42.9920 C.3       2 UNK         0.0481 
     23 CB         21.4984  -24.5225  -42.7389 C.3       2 UNK        -0.1831 
     24 N          20.2487  -25.8964  -44.3551 N.am      2 UNK        -0.4498 
     25 C          19.7030  -25.2786  -45.4081 C.2       1 UNK         0.5027 
     26 O          19.2209  -24.1416  -45.3649 O.2       1 UNK        -0.4969 
     27 C          19.1151  -27.8464  -39.4311 C.2       3 UNK         0.5005 
     28 O          18.9621  -26.7468  -38.8922 O.2       3 UNK        -0.5279 
     29 N          19.7678  -28.8771  -38.8734 N.am      4 UNK        -0.4463 
     30 CA         20.4825  -28.8761  -37.5907 C.3       4 UNK         0.0283 
     31 CB         19.4928  -28.7362  -36.4140 C.3       4 UNK        -0.1875 
     32 C          21.6406  -27.8549  -37.5249 C.2       4 UNK         0.4949 
     33 O          21.9311  -27.3385  -36.4442 O.2       4 UNK        -0.5039 
     34 N          22.2868  -27.5821  -38.6677 N.am      5 UNK        -0.4663 
     35 CA         23.3843  -26.6195  -38.7826 C.3       5 UNK         0.0242 
     36 CB         22.8311  -25.2094  -39.0507 C.3       5 UNK        -0.1982 
     37 C          24.4025  -27.0456  -39.8463 C.2       5 UNK         0.5017 
     38 O          25.5899  -27.1379  -39.5311 O.2       5 UNK        -0.5012 
     39 N          23.9373  -27.3080  -41.0762 N.am      6 UNK        -0.4439 
     40 CA         24.7630  -27.8501  -42.1606 C.3       6 UNK         0.0297 
     41 CB         24.0438  -27.6422  -43.5043 C.3       6 UNK        -0.2006 
     42 C          25.0440  -29.3436  -41.9399 C.2       6 UNK         0.4892 
     43 O          24.2348  -30.0255  -41.3124 O.2       6 UNK        -0.5089 
     44 N          26.1544  -29.8465  -42.4885 N.am      7 UNK        -0.4243 
     45 CA         26.4438  -31.2810  -42.5200 C.3       7 UNK         0.0196 
     46 CB         27.9652  -31.4947  -42.5718 C.3       7 UNK        -0.2007 
     47 C          25.7674  -31.9042  -43.7578 C.2       7 UNK         0.5020 
     48 O          25.8681  -31.3124  -44.8323 O.2       7 UNK        -0.5147 
     49 N          25.1059  -33.0677  -43.6771 N.am      8 UNK        -0.4734 
     50 CA         24.8007  -33.8913  -42.4972 C.3       8 UNK         0.0238 
     51 CB         24.8280  -35.3681  -42.9317 C.3       8 UNK        -0.1912 
     52 C          23.4367  -33.5419  -41.8596 C.2       8 UNK         0.5038 
     53 O          22.9865  -34.2689  -40.9733 O.2       8 UNK        -0.5046 
     54 N          22.7892  -32.4755  -42.3459 N.am      9 UNK        -0.4200 
     55 CA         21.4462  -32.0087  -41.9654 C.3       9 UNK         0.0839 
     56 C          21.2559  -31.5939  -40.4788 C.2       9 UNK         0.5513 
     57 N          22.3039  -31.2650  -39.7393 N.am      9 UNK        -0.7519 
     58 O          20.1280  -31.5448  -39.9961 O.2       9 UNK        -0.4960 
     59 C59        20.9660  -30.8707  -42.9009 C.3       10 UNK        -0.0876 
     60 S60        20.9761  -31.3408  -44.6646 S.3       10 UNK        -0.2414 
     61 C61        19.4069  -32.2565  -44.8098 C.3       10 UNK         0.0169 
     62 H62        19.8588  -23.8687  -50.6204 H         1 UNK         0.0903 
     63 H63        18.3259  -24.7292  -50.7886 H         1 UNK         0.0903 
     64 H64        18.5076  -23.4836  -49.5521 H         1 UNK         0.0903 
     65 H65        18.8141  -24.3326  -47.4751 H         1 UNK         0.3096 
     66 H66        20.7011  -26.3861  -46.9200 H         1 UNK         0.1121 
     67 H67        19.1547  -28.0101  -45.8534 H         1 UNK         0.0849 
     68 H68        18.8678  -27.9155  -47.5630 H         1 UNK         0.0849 
     69 H69        16.5730  -29.0696  -47.5172 H         1 UNK         0.0865 
     70 H70        15.2036  -28.5861  -46.5533 H         1 UNK         0.0865 
     71 H71        18.3479  -30.4644  -46.5519 H         1 UNK         0.1346 
     72 H72        17.7885  -32.0591  -42.6106 H         1 UNK         0.1412 
     73 H73        15.1825  -28.9801  -44.0689 H         1 UNK         0.1426 
     74 H74        15.2606  -31.5802  -41.7240 H         1 UNK         0.0716 
     75 H75        14.7426  -29.9276  -41.9355 H         1 UNK         0.0716 
     76 H76        16.5137  -27.6841  -40.0964 H         1 UNK         0.0695 
     77 H77        16.5793  -28.0782  -41.7862 H         1 UNK         0.0695 
     78 H78        19.0355  -28.9505  -41.2760 H         1 UNK         0.0983 
     79 H79        18.1171  -26.4015  -42.0650 H         1 UNK         0.3095 
     80 H80        19.3652  -24.7493  -42.8384 H         1 UNK         0.0454 
     81 H81        22.4149  -25.1100  -42.7685 H         1 UNK         0.0851 
     82 H82        21.4455  -24.0421  -41.7626 H         1 UNK         0.0851 
     83 H83        21.5901  -23.7269  -43.4782 H         1 UNK         0.0851 
     84 H84        20.6101  -26.8349  -44.4595 H         1 UNK         0.2976 
     85 H85        19.8035  -29.7609  -39.3774 H         1 UNK         0.3116 
     86 H86        20.9460  -29.8591  -37.5044 H         1 UNK         0.0646 
     87 H87        19.0356  -27.7467  -36.3843 H         1 UNK         0.0847 
     88 H88        19.9956  -28.8891  -35.4584 H         1 UNK         0.0847 
     89 H89        18.6929  -29.4738  -36.4781 H         1 UNK         0.0847 
     90 H90        22.0084  -28.0586  -39.5155 H         1 UNK         0.3040 
     91 H91        23.9314  -26.5894  -37.8372 H         1 UNK         0.1015 
     92 H92        22.1697  -25.2006  -39.9150 H         1 UNK         0.0786 
     93 H93        23.6352  -24.4964  -39.2381 H         1 UNK         0.0786 
     94 H94        22.2624  -24.8416  -38.1966 H         1 UNK         0.0786 
     95 H95        22.9390  -27.2362  -41.2607 H         1 UNK         0.3172 
     96 H96        25.7143  -27.3143  -42.1861 H         1 UNK         0.0595 
     97 H97        24.6107  -28.0817  -44.3263 H         1 UNK         0.0839 
     98 H98        23.9251  -26.5837  -43.7316 H         1 UNK         0.0839 
     99 H99        23.0558  -28.1034  -43.5108 H         1 UNK         0.0839 
    100 H100       26.7499  -29.2486  -43.0436 H         1 UNK         0.2998 
    101 H101       26.0742  -31.7225  -41.5956 H         1 UNK         0.0822 
    102 H102       28.2080  -32.5582  -42.5677 H         1 UNK         0.0787 
    103 H103       28.4059  -31.0629  -43.4716 H         1 UNK         0.0787 
    104 H104       28.4581  -31.0463  -41.7089 H         1 UNK         0.0787 
    105 H105       24.7061  -33.4148  -44.5377 H         1 UNK         0.3055 
    106 H106       25.5660  -33.7779  -41.7294 H         1 UNK         0.1106 
    107 H107       24.6710  -36.0328  -42.0808 H         1 UNK         0.0828 
    108 H108       24.0510  -35.5896  -43.6645 H         1 UNK         0.0828 
    109 H109       25.7894  -35.6354  -43.3707 H         1 UNK         0.0828 
    110 H110       23.2456  -31.9347  -43.0645 H         1 UNK         0.2931 
    111 H111       20.7804  -32.8603  -42.1141 H         1 UNK         0.0412 
    112 H112       22.1911  -31.0415  -38.7662 H         1 UNK         0.3472 
    113 H113       23.1958  -31.1077  -40.2013 H         1 UNK         0.3472 
    114 H114       21.6050  -29.9938  -42.7796 H         1 UNK         0.0970 
    115 H115       19.9638  -30.5411  -42.6323 H         1 UNK         0.0970 
    116 H116       19.3995  -33.0840  -44.0992 H         1 UNK         0.0612 
    117 H117       19.3551  -32.7074  -45.8018 H         1 UNK         0.0612 
@<TRIPOS>BOND
     1    1    2 1    
     2    1   62 1    
     3    1   63 1    
     4    1   64 1    
     5    2    3 2    
     6    2    4 am   BACKBONE|DICT|INTERRES
     7    4    5 1    
     8    4   65 1    
     9    5    6 1    
    10    5   25 1    
    11    5   66 1    
    12    6    7 1    
    13    6   67 1    
    14    6   68 1    
    15    7    8 1    
    16    8    9 1    
    17    8   69 1    
    18    8   70 1    
    19    9   10 ar   
    20    9   14 ar   
    21   10   11 ar   
    22   10   71 1    
    23   11   12 ar   
    24   11   61 1    
    25   12   13 ar   
    26   12   72 1    
    27   13   14 ar   
    28   13   15 1    
    29   14   73 1    
    30   15   16 1    
    31   15   74 1    
    32   15   75 1    
    33   16   17 1    
    34   17   18 1    
    35   17   76 1    
    36   17   77 1    
    37   18   19 1    
    38   18   27 1    
    39   18   78 1    
    40   19   20 am   BACKBONE|DICT|INTERRES
    41   19   79 1    
    42   20   21 2    
    43   20   22 1    
    44   22   23 1    
    45   22   24 1    
    46   22   80 1    
    47   23   81 1    
    48   23   82 1    
    49   23   83 1    
    50   24   25 am   BACKBONE|DICT|INTERRES
    51   24   84 1    
    52   25   26 2    
    53   27   28 2    
    54   27   29 am   BACKBONE|DICT|INTERRES
    55   29   30 1    
    56   29   85 1    
    57   30   31 1    
    58   30   32 1    
    59   30   86 1    
    60   31   87 1    
    61   31   88 1    
    62   31   89 1    
    63   32   33 2    
    64   32   34 am   BACKBONE|DICT|INTERRES
    65   34   35 1    
    66   34   90 1    
    67   35   36 1    
    68   35   37 1    
    69   35   91 1    
    70   36   92 1    
    71   36   93 1    
    72   36   94 1    
    73   37   38 2    
    74   37   39 am   BACKBONE|DICT|INTERRES
    75   39   40 1    
    76   39   95 1    
    77   40   41 1    
    78   40   42 1    
    79   40   96 1    
    80   41   97 1    
    81   41   98 1    
    82   41   99 1    
    83   42   43 2    
    84   42   44 am   BACKBONE|DICT|INTERRES
    85   44   45 1    
    86   44  100 1    
    87   45   46 1    
    88   45   47 1    
    89   45  101 1    
    90   46  102 1    
    91   46  103 1    
    92   46  104 1    
    93   47   48 2    
    94   47   49 am   BACKBONE|DICT|INTERRES
    95   49   50 1    
    96   49  105 1    
    97   50   51 1    
    98   50   52 1    
    99   50  106 1    
   100   51  107 1    
   101   51  108 1    
   102   51  109 1    
   103   52   53 2    
   104   52   54 am   BACKBONE|DICT|INTERRES
   105   54   55 1    
   106   54  110 1    
   107   55   56 1    
   108   55   59 1    
   109   55  111 1    
   110   56   57 am   BACKBONE|DICT|INTERRES
   111   56   58 2    
   112   57  112 1    
   113   57  113 1    
   114   59   60 1    
   115   59  114 1    
   116   59  115 1    
   117   60   61 1    
   118   61  116 1    
   119   61  117 1    
@<TRIPOS>SUBSTRUCTURE
     1 UNK         1 GROUP             0       ****    0 ROOT    
