@<TRIPOS>MOLECULE
3R8
117   119    1
SMALL
USER_CHARGES


@<TRIPOS>ATOM
      1 CA         17.2414  -25.1525  -48.9664 C.3       0 UNK        -0.2013 
      2 C          17.5557  -25.8400  -47.6466 C.2       0 UNK         0.4866 
      3 O          18.7268  -25.9864  -47.2952 O.2       0 UNK        -0.5176 
      4 N          16.5207  -26.2564  -46.9061 N.am      1 UNK        -0.4884 
      5 CA         16.6132  -26.9453  -45.6118 C.3       1 UNK         0.0853 
      6 C6         15.3435  -27.7878  -45.3270 C.3       10 UNK        -0.0849 
      7 S7         15.2636  -29.2278  -46.4457 S.3       10 UNK        -0.2776 
      8 C8         15.7118  -30.6056  -45.3347 C.3       10 UNK         0.0316 
      9 C9         16.9973  -30.3532  -44.5534 C.ar      10 UNK        -0.0863 
     10 C10        16.9552  -30.2220  -43.1620 C.ar      10 UNK        -0.1009 
     11 C11        18.1262  -30.0067  -42.4307 C.ar      10 UNK        -0.0712 
     12 C12        19.3487  -29.9216  -43.1010 C.ar      10 UNK        -0.0894 
     13 C13        19.4054  -30.0331  -44.4951 C.ar      10 UNK        -0.0745 
     14 C14        18.2264  -30.2590  -45.2137 C.ar      10 UNK        -0.0972 
     15 C15        20.7379  -29.9552  -45.2292 C.3       10 UNK         0.0209 
     16 S16        21.2792  -28.2403  -45.5173 S.3       10 UNK        -0.2568 
     17 C17        22.1969  -27.8669  -43.9821 C.3       10 UNK        -0.0983 
     18 CA         22.0623  -26.3899  -43.5264 C.3       3 UNK         0.0876 
     19 N          20.6618  -25.9489  -43.4656 N.am      3 UNK        -0.4424 
     20 C          20.2514  -24.6743  -43.5286 C.2       2 UNK         0.4918 
     21 O          21.0182  -23.7115  -43.5667 O.2       2 UNK        -0.4875 
     22 CA         18.7312  -24.4578  -43.5782 C.3       2 UNK         0.0481 
     23 CB         18.3306  -23.0115  -43.9277 C.3       2 UNK        -0.1831 
     24 N          18.1515  -25.3837  -44.5463 N.am      2 UNK        -0.4498 
     25 C          16.9471  -25.9573  -44.4748 C.2       1 UNK         0.5027 
     26 O          16.1288  -25.7259  -43.5825 O.2       1 UNK        -0.4969 
     27 C          22.8367  -26.1634  -42.2074 C.2       3 UNK         0.5005 
     28 O          24.0332  -26.4503  -42.1656 O.2       3 UNK        -0.5279 
     29 N          22.1561  -25.7037  -41.1430 N.am      4 UNK        -0.4463 
     30 CA         22.6960  -25.3923  -39.8086 C.3       4 UNK         0.0283 
     31 CB         23.6002  -24.1431  -39.8749 C.3       4 UNK        -0.1875 
     32 C          23.3941  -26.5893  -39.1287 C.2       4 UNK         0.4949 
     33 O          24.3575  -26.4014  -38.3851 O.2       4 UNK        -0.5039 
     34 N          22.9005  -27.8005  -39.4279 N.am      5 UNK        -0.4663 
     35 CA         23.4211  -29.1098  -39.0157 C.3       5 UNK         0.0242 
     36 CB         23.3310  -29.2878  -37.4850 C.3       5 UNK        -0.1982 
     37 C          24.8199  -29.4507  -39.5735 C.2       5 UNK         0.5017 
     38 O          25.4477  -30.3872  -39.0772 O.2       5 UNK        -0.5012 
     39 N          25.2762  -28.7374  -40.6169 N.am      6 UNK        -0.4439 
     40 CA         26.5042  -29.0622  -41.3541 C.3       6 UNK         0.0297 
     41 CB         26.9746  -27.8315  -42.1453 C.3       6 UNK        -0.2006 
     42 C          26.3264  -30.2693  -42.2950 C.2       6 UNK         0.4892 
     43 O          27.3203  -30.8895  -42.6749 O.2       6 UNK        -0.5089 
     44 N          25.0739  -30.5828  -42.6441 N.am      7 UNK        -0.4243 
     45 CA         24.6556  -31.7357  -43.4288 C.3       7 UNK         0.0196 
     46 CB         24.6492  -31.3700  -44.9234 C.3       7 UNK        -0.2007 
     47 C          23.2566  -32.1434  -42.9561 C.2       7 UNK         0.5020 
     48 O          22.5274  -31.2968  -42.4301 O.2       7 UNK        -0.5147 
     49 N          22.9120  -33.4206  -43.1729 N.am      8 UNK        -0.4734 
     50 CA         21.6350  -34.1010  -42.8976 C.3       8 UNK         0.0238 
     51 CB         20.5066  -33.5515  -43.7912 C.3       8 UNK        -0.1912 
     52 C          21.2207  -34.1172  -41.4149 C.2       8 UNK         0.5038 
     53 O          21.1626  -35.1911  -40.8149 O.2       8 UNK        -0.5046 
     54 N          20.9499  -32.9332  -40.8590 N.am      9 UNK        -0.4200 
     55 CA         20.6196  -32.7010  -39.4465 C.3       9 UNK         0.0839 
     56 C          21.8534  -32.7283  -38.4977 C.2       9 UNK         0.5513 
     57 N          23.0807  -32.7855  -39.0006 N.am      9 UNK        -0.7519 
     58 O          21.6909  -32.6992  -37.2810 O.2       9 UNK        -0.4960 
     59 C59        19.8061  -31.3924  -39.2663 C.3       10 UNK        -0.0876 
     60 S60        18.1710  -31.4680  -40.0780 S.3       10 UNK        -0.2414 
     61 C61        18.0599  -29.8558  -40.9186 C.3       10 UNK         0.0169 
     62 H62        17.7022  -25.6965  -49.7906 H         1 UNK         0.0903 
     63 H63        16.1691  -25.0982  -49.1536 H         1 UNK         0.0903 
     64 H64        17.6378  -24.1375  -48.9640 H         1 UNK         0.0903 
     65 H65        15.5812  -26.0966  -47.2416 H         1 UNK         0.3096 
     66 H66        17.4602  -27.6331  -45.6557 H         1 UNK         0.1121 
     67 H67        14.4419  -27.1860  -45.4543 H         1 UNK         0.0849 
     68 H68        15.3208  -28.1391  -44.2940 H         1 UNK         0.0849 
     69 H69        14.8781  -30.7921  -44.6558 H         1 UNK         0.0865 
     70 H70        15.8270  -31.5142  -45.9274 H         1 UNK         0.0865 
     71 H71        16.0094  -30.2927  -42.6419 H         1 UNK         0.1346 
     72 H72        20.2536  -29.7852  -42.5288 H         1 UNK         0.1412 
     73 H73        18.2612  -30.3575  -46.2903 H         1 UNK         0.1426 
     74 H74        20.6575  -30.4549  -46.1956 H         1 UNK         0.0716 
     75 H75        21.5050  -30.4990  -44.6812 H         1 UNK         0.0716 
     76 H76        23.2452  -28.1105  -44.1666 H         1 UNK         0.0695 
     77 H77        21.8778  -28.5389  -43.1878 H         1 UNK         0.0695 
     78 H78        22.5643  -25.7740  -44.2761 H         1 UNK         0.0983 
     79 H79        19.9670  -26.6816  -43.4659 H         1 UNK         0.3095 
     80 H80        18.3511  -24.6911  -42.5816 H         1 UNK         0.0454 
     81 H81        18.6980  -22.7205  -44.9125 H         1 UNK         0.0851 
     82 H82        18.7378  -22.3053  -43.2031 H         1 UNK         0.0851 
     83 H83        17.2477  -22.8877  -43.9242 H         1 UNK         0.0851 
     84 H84        18.7220  -25.5999  -45.3615 H         1 UNK         0.2976 
     85 H85        21.1711  -25.5196  -41.2710 H         1 UNK         0.3116 
     86 H86        21.8391  -25.1463  -39.1797 H         1 UNK         0.0646 
     87 H87        23.0859  -23.3050  -40.3451 H         1 UNK         0.0847 
     88 H88        24.5132  -24.3356  -40.4397 H         1 UNK         0.0847 
     89 H89        23.8978  -23.8195  -38.8768 H         1 UNK         0.0847 
     90 H90        22.1076  -27.8251  -40.0533 H         1 UNK         0.3040 
     91 H91        22.7550  -29.8467  -39.4656 H         1 UNK         0.1015 
     92 H92        24.0232  -28.6315  -36.9573 H         1 UNK         0.0786 
     93 H93        23.5717  -30.3109  -37.1936 H         1 UNK         0.0786 
     94 H94        22.3250  -29.0808  -37.1201 H         1 UNK         0.0786 
     95 H95        24.7298  -27.9559  -40.9681 H         1 UNK         0.3172 
     96 H96        27.2836  -29.3151  -40.6322 H         1 UNK         0.0595 
     97 H97        26.2816  -27.5773  -42.9480 H         1 UNK         0.0839 
     98 H98        27.9467  -28.0145  -42.6049 H         1 UNK         0.0839 
     99 H99        27.0785  -26.9578  -41.5015 H         1 UNK         0.0839 
    100 H100       24.3059  -30.0546  -42.2505 H         1 UNK         0.2998 
    101 H101       25.3417  -32.5669  -43.2518 H         1 UNK         0.0822 
    102 H102       25.6472  -31.0979  -45.2674 H         1 UNK         0.0787 
    103 H103       24.3140  -32.2096  -45.5336 H         1 UNK         0.0787 
    104 H104       23.9855  -30.5292  -45.1295 H         1 UNK         0.0787 
    105 H105       23.6143  -34.0172  -43.5901 H         1 UNK         0.3055 
    106 H106       21.7875  -35.1437  -43.1827 H         1 UNK         0.1106 
    107 H107       20.2851  -32.5099  -43.5695 H         1 UNK         0.0828 
    108 H108       19.5834  -34.1136  -43.6450 H         1 UNK         0.0828 
    109 H109       20.7652  -33.6202  -44.8477 H         1 UNK         0.0828 
    110 H110       21.1355  -32.1101  -41.4233 H         1 UNK         0.2931 
    111 H111       19.9839  -33.5263  -39.1195 H         1 UNK         0.0412 
    112 H112       23.8730  -32.7923  -38.3776 H         1 UNK         0.3472 
    113 H113       23.2216  -32.8161  -39.9964 H         1 UNK         0.3472 
    114 H114       20.3785  -30.5441  -39.6429 H         1 UNK         0.0970 
    115 H115       19.6276  -31.1902  -38.2083 H         1 UNK         0.0970 
    116 H116       17.1141  -29.3885  -40.6401 H         1 UNK         0.0612 
    117 H117       18.8374  -29.1754  -40.5697 H         1 UNK         0.0612 
@<TRIPOS>BOND
     1    1    2 1    
     2    1   62 1    
     3    1   63 1    
     4    1   64 1    
     5    2    3 2    
     6    2    4 am   BACKBONE|DICT|INTERRES
     7    4    5 1    
     8    4   65 1    
     9    5    6 1    
    10    5   25 1    
    11    5   66 1    
    12    6    7 1    
    13    6   67 1    
    14    6   68 1    
    15    7    8 1    
    16    8    9 1    
    17    8   69 1    
    18    8   70 1    
    19    9   10 ar   
    20    9   14 ar   
    21   10   11 ar   
    22   10   71 1    
    23   11   12 ar   
    24   11   61 1    
    25   12   13 ar   
    26   12   72 1    
    27   13   14 ar   
    28   13   15 1    
    29   14   73 1    
    30   15   16 1    
    31   15   74 1    
    32   15   75 1    
    33   16   17 1    
    34   17   18 1    
    35   17   76 1    
    36   17   77 1    
    37   18   19 1    
    38   18   27 1    
    39   18   78 1    
    40   19   20 am   BACKBONE|DICT|INTERRES
    41   19   79 1    
    42   20   21 2    
    43   20   22 1    
    44   22   23 1    
    45   22   24 1    
    46   22   80 1    
    47   23   81 1    
    48   23   82 1    
    49   23   83 1    
    50   24   25 am   BACKBONE|DICT|INTERRES
    51   24   84 1    
    52   25   26 2    
    53   27   28 2    
    54   27   29 am   BACKBONE|DICT|INTERRES
    55   29   30 1    
    56   29   85 1    
    57   30   31 1    
    58   30   32 1    
    59   30   86 1    
    60   31   87 1    
    61   31   88 1    
    62   31   89 1    
    63   32   33 2    
    64   32   34 am   BACKBONE|DICT|INTERRES
    65   34   35 1    
    66   34   90 1    
    67   35   36 1    
    68   35   37 1    
    69   35   91 1    
    70   36   92 1    
    71   36   93 1    
    72   36   94 1    
    73   37   38 2    
    74   37   39 am   BACKBONE|DICT|INTERRES
    75   39   40 1    
    76   39   95 1    
    77   40   41 1    
    78   40   42 1    
    79   40   96 1    
    80   41   97 1    
    81   41   98 1    
    82   41   99 1    
    83   42   43 2    
    84   42   44 am   BACKBONE|DICT|INTERRES
    85   44   45 1    
    86   44  100 1    
    87   45   46 1    
    88   45   47 1    
    89   45  101 1    
    90   46  102 1    
    91   46  103 1    
    92   46  104 1    
    93   47   48 2    
    94   47   49 am   BACKBONE|DICT|INTERRES
    95   49   50 1    
    96   49  105 1    
    97   50   51 1    
    98   50   52 1    
    99   50  106 1    
   100   51  107 1    
   101   51  108 1    
   102   51  109 1    
   103   52   53 2    
   104   52   54 am   BACKBONE|DICT|INTERRES
   105   54   55 1    
   106   54  110 1    
   107   55   56 1    
   108   55   59 1    
   109   55  111 1    
   110   56   57 am   BACKBONE|DICT|INTERRES
   111   56   58 2    
   112   57  112 1    
   113   57  113 1    
   114   59   60 1    
   115   59  114 1    
   116   59  115 1    
   117   60   61 1    
   118   61  116 1    
   119   61  117 1    
@<TRIPOS>SUBSTRUCTURE
     1 UNK         1 GROUP             0       ****    0 ROOT    
