@<TRIPOS>MOLECULE
3R8
117   119    1
SMALL
USER_CHARGES


@<TRIPOS>ATOM
      1 CA         14.0765  -22.5974  -45.8954 C.3       0 UNK        -0.2013 
      2 C          15.5335  -22.7130  -46.3169 C.2       0 UNK         0.4866 
      3 O          16.2180  -21.6976  -46.4428 O.2       0 UNK        -0.5176 
      4 N          16.0170  -23.9436  -46.5302 N.am      1 UNK        -0.4884 
      5 CA         17.3928  -24.2475  -46.9502 C.3       1 UNK         0.0853 
      6 C6         17.4584  -25.5714  -47.7570 C.3       10 UNK        -0.0849 
      7 S7         16.8889  -27.0468  -46.8386 S.3       10 UNK        -0.2776 
      8 C8         18.4940  -27.7992  -46.3974 C.3       10 UNK         0.0316 
      9 C9         18.3970  -29.0569  -45.5375 C.ar      10 UNK        -0.0863 
     10 C10        19.4064  -30.0199  -45.6371 C.ar      10 UNK        -0.1009 
     11 C11        19.3984  -31.1533  -44.8200 C.ar      10 UNK        -0.0712 
     12 C12        18.3620  -31.3291  -43.8997 C.ar      10 UNK        -0.0894 
     13 C13        17.3551  -30.3688  -43.7756 C.ar      10 UNK        -0.0745 
     14 C14        17.3695  -29.2426  -44.6038 C.ar      10 UNK        -0.0972 
     15 C15        16.2770  -30.5333  -42.7164 C.3       10 UNK         0.0209 
     16 S16        16.8750  -29.9894  -41.0832 S.3       10 UNK        -0.2568 
     17 C17        16.8594  -28.1719  -41.2572 C.3       10 UNK        -0.0983 
     18 CA         18.2255  -27.5794  -41.6873 C.3       3 UNK         0.0876 
     19 N          18.0612  -26.2275  -42.2249 N.am      3 UNK        -0.4424 
     20 C          18.9975  -25.5624  -42.9119 C.2       2 UNK         0.4918 
     21 O          20.0702  -26.0561  -43.2625 O.2       2 UNK        -0.4875 
     22 CA         18.6491  -24.1079  -43.2688 C.3       2 UNK         0.0481 
     23 CB         19.8752  -23.1713  -43.2206 C.3       2 UNK        -0.1831 
     24 N          17.9356  -24.0383  -44.5488 N.am      2 UNK        -0.4498 
     25 C          18.4164  -24.2243  -45.7894 C.2       1 UNK         0.5027 
     26 O          19.6085  -24.3852  -46.0532 O.2       1 UNK        -0.4969 
     27 C          19.2599  -27.5897  -40.5423 C.2       3 UNK         0.5005 
     28 O          19.3123  -26.6387  -39.7577 O.2       3 UNK        -0.5279 
     29 N          20.0609  -28.6641  -40.4836 N.am      4 UNK        -0.4463 
     30 CA         21.1562  -28.9095  -39.5335 C.3       4 UNK         0.0283 
     31 CB         20.6271  -29.0097  -38.0870 C.3       4 UNK        -0.1875 
     32 C          22.3418  -27.9284  -39.6652 C.2       4 UNK         0.4949 
     33 O          23.1361  -27.8105  -38.7314 O.2       4 UNK        -0.5039 
     34 N          22.4681  -27.2594  -40.8225 N.am      5 UNK        -0.4663 
     35 CA         23.5793  -26.3536  -41.1412 C.3       5 UNK         0.0242 
     36 CB         23.1796  -25.4543  -42.3214 C.3       5 UNK        -0.1982 
     37 C          24.8963  -27.0913  -41.4460 C.2       5 UNK         0.5017 
     38 O          25.9649  -26.4927  -41.3170 O.2       5 UNK        -0.5012 
     39 N          24.7947  -28.3683  -41.8303 N.am      6 UNK        -0.4439 
     40 CA         25.8996  -29.3072  -41.9911 C.3       6 UNK         0.0297 
     41 CB         25.9101  -29.8332  -43.4359 C.3       6 UNK        -0.2006 
     42 C          25.6760  -30.4597  -41.0075 C.2       6 UNK         0.4892 
     43 O          24.5254  -30.8286  -40.7617 O.2       6 UNK        -0.5089 
     44 N          26.7727  -31.0325  -40.4947 N.am      7 UNK        -0.4243 
     45 CA         26.7711  -32.1120  -39.4976 C.3       7 UNK         0.0196 
     46 CB         28.2132  -32.3649  -39.0281 C.3       7 UNK        -0.2007 
     47 C          26.1235  -33.4266  -39.9730 C.2       7 UNK         0.5020 
     48 O          25.6850  -34.2182  -39.1383 O.2       7 UNK        -0.5147 
     49 N          26.0695  -33.6375  -41.2948 N.am      8 UNK        -0.4734 
     50 CA         25.3925  -34.7716  -41.9277 C.3       8 UNK         0.0238 
     51 CB         25.8977  -34.9109  -43.3734 C.3       8 UNK        -0.1912 
     52 C          23.8564  -34.6562  -41.9080 C.2       8 UNK         0.5038 
     53 O          23.1841  -35.6815  -42.0282 O.2       8 UNK        -0.5046 
     54 N          23.3300  -33.4314  -41.7815 N.am      9 UNK        -0.4200 
     55 CA         21.8926  -33.1415  -41.7401 C.3       9 UNK         0.0839 
     56 C          21.3363  -33.2660  -40.2988 C.2       9 UNK         0.5513 
     57 N          20.1171  -33.7647  -40.1483 N.am      9 UNK        -0.7519 
     58 O          21.9744  -32.8758  -39.3242 O.2       9 UNK        -0.4960 
     59 C59        21.5781  -31.7463  -42.3349 C.3       10 UNK        -0.0876 
     60 S60        22.0402  -31.6155  -44.0955 S.3       10 UNK        -0.2414 
     61 C61        20.5186  -32.1777  -44.9259 C.3       10 UNK         0.0169 
     62 H62        13.5225  -22.0034  -46.6217 H         1 UNK         0.0903 
     63 H63        13.5953  -23.5722  -45.8177 H         1 UNK         0.0903 
     64 H64        14.0036  -22.1048  -44.9261 H         1 UNK         0.0903 
     65 H65        15.4161  -24.7489  -46.4140 H         1 UNK         0.3096 
     66 H66        17.7138  -23.4532  -47.6286 H         1 UNK         0.1121 
     67 H67        18.4675  -25.7387  -48.1391 H         1 UNK         0.0849 
     68 H68        16.8328  -25.4784  -48.6462 H         1 UNK         0.0849 
     69 H69        19.0300  -28.0241  -47.3210 H         1 UNK         0.0865 
     70 H70        19.1003  -27.0730  -45.8557 H         1 UNK         0.0865 
     71 H71        20.2185  -29.8794  -46.3379 H         1 UNK         0.1346 
     72 H72        18.3522  -32.1993  -43.2576 H         1 UNK         0.1412 
     73 H73        16.5984  -28.4936  -44.4897 H         1 UNK         0.1426 
     74 H74        15.9857  -31.5829  -42.6528 H         1 UNK         0.0716 
     75 H75        15.3741  -29.9838  -42.9873 H         1 UNK         0.0716 
     76 H76        16.5268  -27.7345  -40.3137 H         1 UNK         0.0695 
     77 H77        16.0906  -27.9111  -41.9862 H         1 UNK         0.0695 
     78 H78        18.6324  -28.1852  -42.4979 H         1 UNK         0.0983 
     79 H79        17.2203  -25.7408  -41.9522 H         1 UNK         0.3095 
     80 H80        17.9479  -23.7421  -42.5168 H         1 UNK         0.0454 
     81 H81        20.6756  -23.4977  -43.8849 H         1 UNK         0.0851 
     82 H82        20.2927  -23.1392  -42.2138 H         1 UNK         0.0851 
     83 H83        19.6071  -22.1509  -43.4938 H         1 UNK         0.0851 
     84 H84        16.9347  -23.9208  -44.4781 H         1 UNK         0.2976 
     85 H85        19.9072  -29.3949  -41.1641 H         1 UNK         0.3116 
     86 H86        21.5607  -29.8896  -39.7875 H         1 UNK         0.0646 
     87 H87        20.2828  -28.0459  -37.7114 H         1 UNK         0.0847 
     88 H88        21.4067  -29.3604  -37.4096 H         1 UNK         0.0847 
     89 H89        19.7992  -29.7150  -38.0153 H         1 UNK         0.0847 
     90 H90        21.7574  -27.3742  -41.5320 H         1 UNK         0.3040 
     91 H91        23.7613  -25.7148  -40.2738 H         1 UNK         0.1015 
     92 H92        22.9501  -26.0364  -43.2150 H         1 UNK         0.0786 
     93 H93        23.9835  -24.7632  -42.5785 H         1 UNK         0.0786 
     94 H94        22.3035  -24.8528  -42.0794 H         1 UNK         0.0786 
     95 H95        23.8760  -28.7888  -41.8238 H         1 UNK         0.3172 
     96 H96        26.8559  -28.8273  -41.7724 H         1 UNK         0.0595 
     97 H97        26.7327  -30.5316  -43.5940 H         1 UNK         0.0839 
     98 H98        26.0351  -29.0197  -44.1507 H         1 UNK         0.0839 
     99 H99        24.9849  -30.3556  -43.6846 H         1 UNK         0.0839 
    100 H100       27.6777  -30.6767  -40.7690 H         1 UNK         0.2998 
    101 H101       26.1888  -31.7640  -38.6416 H         1 UNK         0.0822 
    102 H102       28.2446  -33.1421  -38.2629 H         1 UNK         0.0787 
    103 H103       28.8537  -32.6902  -39.8489 H         1 UNK         0.0787 
    104 H104       28.6530  -31.4677  -38.5919 H         1 UNK         0.0787 
    105 H105       26.4704  -32.9412  -41.9061 H         1 UNK         0.3055 
    106 H106       25.6563  -35.6807  -41.3822 H         1 UNK         0.1106 
    107 H107       25.4370  -35.7682  -43.8665 H         1 UNK         0.0828 
    108 H108       25.6638  -34.0284  -43.9705 H         1 UNK         0.0828 
    109 H109       26.9767  -35.0637  -43.4051 H         1 UNK         0.0828 
    110 H110       23.9399  -32.6450  -41.5913 H         1 UNK         0.2931 
    111 H111       21.3768  -33.8794  -42.3585 H         1 UNK         0.0412 
    112 H112       19.5820  -34.0890  -40.9386 H         1 UNK         0.3472 
    113 H113       19.7309  -33.8380  -39.2199 H         1 UNK         0.3472 
    114 H114       22.1202  -30.9722  -41.7925 H         1 UNK         0.0970 
    115 H115       20.5218  -31.5054  -42.2193 H         1 UNK         0.0970 
    116 H116       20.7418  -32.3601  -45.9780 H         1 UNK         0.0612 
    117 H117       20.2095  -33.1376  -44.5096 H         1 UNK         0.0612 
@<TRIPOS>BOND
     1    1    2 1    
     2    1   62 1    
     3    1   63 1    
     4    1   64 1    
     5    2    3 2    
     6    2    4 am   BACKBONE|DICT|INTERRES
     7    4    5 1    
     8    4   65 1    
     9    5    6 1    
    10    5   25 1    
    11    5   66 1    
    12    6    7 1    
    13    6   67 1    
    14    6   68 1    
    15    7    8 1    
    16    8    9 1    
    17    8   69 1    
    18    8   70 1    
    19    9   10 ar   
    20    9   14 ar   
    21   10   11 ar   
    22   10   71 1    
    23   11   12 ar   
    24   11   61 1    
    25   12   13 ar   
    26   12   72 1    
    27   13   14 ar   
    28   13   15 1    
    29   14   73 1    
    30   15   16 1    
    31   15   74 1    
    32   15   75 1    
    33   16   17 1    
    34   17   18 1    
    35   17   76 1    
    36   17   77 1    
    37   18   19 1    
    38   18   27 1    
    39   18   78 1    
    40   19   20 am   BACKBONE|DICT|INTERRES
    41   19   79 1    
    42   20   21 2    
    43   20   22 1    
    44   22   23 1    
    45   22   24 1    
    46   22   80 1    
    47   23   81 1    
    48   23   82 1    
    49   23   83 1    
    50   24   25 am   BACKBONE|DICT|INTERRES
    51   24   84 1    
    52   25   26 2    
    53   27   28 2    
    54   27   29 am   BACKBONE|DICT|INTERRES
    55   29   30 1    
    56   29   85 1    
    57   30   31 1    
    58   30   32 1    
    59   30   86 1    
    60   31   87 1    
    61   31   88 1    
    62   31   89 1    
    63   32   33 2    
    64   32   34 am   BACKBONE|DICT|INTERRES
    65   34   35 1    
    66   34   90 1    
    67   35   36 1    
    68   35   37 1    
    69   35   91 1    
    70   36   92 1    
    71   36   93 1    
    72   36   94 1    
    73   37   38 2    
    74   37   39 am   BACKBONE|DICT|INTERRES
    75   39   40 1    
    76   39   95 1    
    77   40   41 1    
    78   40   42 1    
    79   40   96 1    
    80   41   97 1    
    81   41   98 1    
    82   41   99 1    
    83   42   43 2    
    84   42   44 am   BACKBONE|DICT|INTERRES
    85   44   45 1    
    86   44  100 1    
    87   45   46 1    
    88   45   47 1    
    89   45  101 1    
    90   46  102 1    
    91   46  103 1    
    92   46  104 1    
    93   47   48 2    
    94   47   49 am   BACKBONE|DICT|INTERRES
    95   49   50 1    
    96   49  105 1    
    97   50   51 1    
    98   50   52 1    
    99   50  106 1    
   100   51  107 1    
   101   51  108 1    
   102   51  109 1    
   103   52   53 2    
   104   52   54 am   BACKBONE|DICT|INTERRES
   105   54   55 1    
   106   54  110 1    
   107   55   56 1    
   108   55   59 1    
   109   55  111 1    
   110   56   57 am   BACKBONE|DICT|INTERRES
   111   56   58 2    
   112   57  112 1    
   113   57  113 1    
   114   59   60 1    
   115   59  114 1    
   116   59  115 1    
   117   60   61 1    
   118   61  116 1    
   119   61  117 1    
@<TRIPOS>SUBSTRUCTURE
     1 UNK         1 GROUP             0       ****    0 ROOT    
