@<TRIPOS>MOLECULE
3R8
117   119    1
SMALL
USER_CHARGES


@<TRIPOS>ATOM
      1 CA         16.7158  -25.0975  -44.9591 C.3       0 UNK        -0.2013 
      2 C          17.9085  -25.5094  -45.8083 C.2       0 UNK         0.4866 
      3 O          18.6294  -24.6477  -46.3104 O.2       0 UNK        -0.5176 
      4 N          18.1190  -26.8222  -45.9755 N.am      1 UNK        -0.4884 
      5 CA         19.1884  -27.4167  -46.7969 C.3       1 UNK         0.0853 
      6 C6         18.9650  -28.9321  -47.0466 C.3       10 UNK        -0.0849 
      7 S7         17.2250  -29.3459  -47.4248 S.3       10 UNK        -0.2776 
      8 C8         16.8558  -30.6731  -46.2279 C.3       10 UNK         0.0316 
      9 C9         17.1402  -30.3107  -44.7710 C.ar      10 UNK        -0.0863 
     10 C10        18.1279  -31.0079  -44.0680 C.ar      10 UNK        -0.1009 
     11 C11        18.3240  -30.7850  -42.7029 C.ar      10 UNK        -0.0712 
     12 C12        17.5265  -29.8486  -42.0426 C.ar      10 UNK        -0.0894 
     13 C13        16.5906  -29.0782  -42.7430 C.ar      10 UNK        -0.0745 
     14 C14        16.3885  -29.3335  -44.1066 C.ar      10 UNK        -0.0972 
     15 C15        15.7547  -28.0017  -42.0435 C.3       10 UNK         0.0209 
     16 S16        16.5610  -27.1718  -40.6185 S.3       10 UNK        -0.2568 
     17 C17        18.0201  -26.3723  -41.3704 C.3       10 UNK        -0.0983 
     18 CA         19.3428  -27.0874  -40.9680 C.3       3 UNK         0.0876 
     19 N          20.2680  -27.2391  -42.0944 N.am      3 UNK        -0.4424 
     20 C          21.0812  -26.3256  -42.6479 C.2       2 UNK         0.4918 
     21 O          21.2895  -25.2004  -42.1990 O.2       2 UNK        -0.4875 
     22 CA         21.7079  -26.7335  -43.9821 C.3       2 UNK         0.0481 
     23 CB         22.7294  -27.8721  -43.8173 C.3       2 UNK        -0.1831 
     24 N          20.6033  -27.1236  -44.8479 N.am      2 UNK        -0.4498 
     25 C          20.5844  -27.1825  -46.1818 C.2       1 UNK         0.5027 
     26 O          21.5738  -27.0526  -46.9029 O.2       1 UNK        -0.4969 
     27 C          20.0174  -26.5671  -39.6835 C.2       3 UNK         0.5005 
     28 O          20.4521  -27.3852  -38.8728 O.2       3 UNK        -0.5279 
     29 N          20.1772  -25.2432  -39.5471 N.am      4 UNK        -0.4463 
     30 CA         20.9811  -24.6100  -38.4951 C.3       4 UNK         0.0283 
     31 CB         20.7922  -23.0861  -38.5535 C.3       4 UNK        -0.1875 
     32 C          22.4772  -24.9728  -38.5829 C.2       4 UNK         0.4949 
     33 O          23.1357  -25.0753  -37.5483 O.2       4 UNK        -0.5039 
     34 N          22.9751  -25.1913  -39.8092 N.am      5 UNK        -0.4663 
     35 CA         24.3302  -25.6778  -40.0868 C.3       5 UNK         0.0242 
     36 CB         24.7849  -25.1383  -41.4534 C.3       5 UNK        -0.1982 
     37 C          24.4450  -27.2145  -40.0374 C.2       5 UNK         0.5017 
     38 O          25.5644  -27.7242  -40.0648 O.2       5 UNK        -0.5012 
     39 N          23.3052  -27.9232  -39.9853 N.am      6 UNK        -0.4439 
     40 CA         23.0960  -29.3727  -39.8175 C.3       6 UNK         0.0297 
     41 CB         23.5778  -29.8216  -38.4256 C.3       6 UNK        -0.2006 
     42 C          23.6609  -30.3147  -40.9019 C.2       6 UNK         0.4892 
     43 O          23.1087  -31.4006  -41.0712 O.2       6 UNK        -0.5089 
     44 N          24.7235  -29.9039  -41.6056 N.am      7 UNK        -0.4243 
     45 CA         25.5768  -30.6932  -42.5076 C.3       7 UNK         0.0196 
     46 CB         26.6071  -29.7476  -43.1472 C.3       7 UNK        -0.2007 
     47 C          24.8835  -31.5303  -43.6013 C.2       7 UNK         0.5020 
     48 O          25.4704  -32.5092  -44.0630 O.2       7 UNK        -0.5147 
     49 N          23.6673  -31.1447  -44.0059 N.am      8 UNK        -0.4734 
     50 CA         22.8383  -31.8835  -44.9645 C.3       8 UNK         0.0238 
     51 CB         21.7270  -30.9595  -45.4913 C.3       8 UNK        -0.1912 
     52 C          22.2350  -33.1810  -44.3900 C.2       8 UNK         0.5038 
     53 O          21.8520  -34.0527  -45.1714 O.2       8 UNK        -0.5046 
     54 N          22.1482  -33.2808  -43.0585 N.am      9 UNK        -0.4200 
     55 CA         21.6223  -34.4322  -42.3169 C.3       9 UNK         0.0839 
     56 C          22.7790  -35.2708  -41.7145 C.2       9 UNK         0.5513 
     57 N          22.5595  -36.5629  -41.5126 N.am      9 UNK        -0.7519 
     58 O          23.8560  -34.7685  -41.3997 O.2       9 UNK        -0.4960 
     59 C59        20.6332  -33.9737  -41.2125 C.3       10 UNK        -0.0876 
     60 S60        19.0738  -33.3338  -41.9123 S.3       10 UNK        -0.2414 
     61 C61        19.4046  -31.5455  -41.9465 C.3       10 UNK         0.0169 
     62 H62        16.0998  -25.9517  -44.6819 H         1 UNK         0.0903 
     63 H63        17.0535  -24.6061  -44.0472 H         1 UNK         0.0903 
     64 H64        16.0885  -24.3971  -45.5100 H         1 UNK         0.0903 
     65 H65        17.4681  -27.4894  -45.5850 H         1 UNK         0.3096 
     66 H66        19.1740  -26.9090  -47.7642 H         1 UNK         0.1121 
     67 H67        19.2895  -29.5170  -46.1862 H         1 UNK         0.0849 
     68 H68        19.5854  -29.2684  -47.8795 H         1 UNK         0.0849 
     69 H69        15.8031  -30.9428  -46.3224 H         1 UNK         0.0865 
     70 H70        17.4169  -31.5629  -46.5181 H         1 UNK         0.0865 
     71 H71        18.7248  -31.7563  -44.5718 H         1 UNK         0.1346 
     72 H72        17.6436  -29.7155  -40.9773 H         1 UNK         0.1412 
     73 H73        15.6265  -28.7900  -44.6491 H         1 UNK         0.1426 
     74 H74        14.8325  -28.4648  -41.6908 H         1 UNK         0.0716 
     75 H75        15.4557  -27.2349  -42.7585 H         1 UNK         0.0716 
     76 H76        18.0205  -25.3127  -41.1121 H         1 UNK         0.0695 
     77 H77        17.8892  -26.4015  -42.4527 H         1 UNK         0.0695 
     78 H78        19.1006  -28.1178  -40.7193 H         1 UNK         0.0983 
     79 H79        20.2296  -28.1475  -42.5327 H         1 UNK         0.3095 
     80 H80        22.2052  -25.8616  -44.4122 H         1 UNK         0.0454 
     81 H81        23.1773  -28.1419  -44.7738 H         1 UNK         0.0851 
     82 H82        22.2711  -28.7642  -43.3939 H         1 UNK         0.0851 
     83 H83        23.5442  -27.5770  -43.1566 H         1 UNK         0.0851 
     84 H84        19.7020  -27.1807  -44.3943 H         1 UNK         0.2976 
     85 H85        19.8596  -24.6451  -40.2977 H         1 UNK         0.3116 
     86 H86        20.6106  -24.9647  -37.5309 H         1 UNK         0.0646 
     87 H87        21.1279  -22.6727  -39.5055 H         1 UNK         0.0847 
     88 H88        19.7469  -22.8092  -38.4158 H         1 UNK         0.0847 
     89 H89        21.3626  -22.5926  -37.7653 H         1 UNK         0.0847 
     90 H90        22.3632  -25.0599  -40.6108 H         1 UNK         0.3040 
     91 H91        25.0128  -25.2869  -39.3286 H         1 UNK         0.1015 
     92 H92        25.7900  -25.4842  -41.6995 H         1 UNK         0.0786 
     93 H93        24.8115  -24.0485  -41.4556 H         1 UNK         0.0786 
     94 H94        24.1238  -25.4541  -42.2595 H         1 UNK         0.0786 
     95 H95        22.4532  -27.3817  -39.9227 H         1 UNK         0.3172 
     96 H96        22.0137  -29.5092  -39.8445 H         1 UNK         0.0595 
     97 H97        24.6557  -29.7017  -38.3109 H         1 UNK         0.0839 
     98 H98        23.3478  -30.8738  -38.2514 H         1 UNK         0.0839 
     99 H99        23.0900  -29.2499  -37.6359 H         1 UNK         0.0839 
    100 H100       25.1162  -29.0155  -41.3050 H         1 UNK         0.2998 
    101 H101       26.1151  -31.4023  -41.8757 H         1 UNK         0.0822 
    102 H102       27.2937  -30.2931  -43.7964 H         1 UNK         0.0787 
    103 H103       27.2108  -29.2466  -42.3900 H         1 UNK         0.0787 
    104 H104       26.1241  -28.9800  -43.7533 H         1 UNK         0.0787 
    105 H105       23.2588  -30.3379  -43.5621 H         1 UNK         0.3055 
    106 H106       23.4678  -32.1731  -45.8091 H         1 UNK         0.1106 
    107 H107       21.0847  -30.5980  -44.6888 H         1 UNK         0.0828 
    108 H108       22.1420  -30.0944  -46.0086 H         1 UNK         0.0828 
    109 H109       21.0905  -31.4833  -46.2061 H         1 UNK         0.0828 
    110 H110       22.5590  -32.5529  -42.4795 H         1 UNK         0.2931 
    111 H111       21.0776  -35.0849  -43.0024 H         1 UNK         0.0412 
    112 H112       21.6789  -36.9880  -41.7603 H         1 UNK         0.3472 
    113 H113       23.2922  -37.1276  -41.1110 H         1 UNK         0.3472 
    114 H114       20.3682  -34.8115  -40.5648 H         1 UNK         0.0970 
    115 H115       21.0894  -33.2252  -40.5617 H         1 UNK         0.0970 
    116 H116       19.4938  -31.1833  -40.9211 H         1 UNK         0.0612 
    117 H117       20.3650  -31.3543  -42.4237 H         1 UNK         0.0612 
@<TRIPOS>BOND
     1    1    2 1    
     2    1   62 1    
     3    1   63 1    
     4    1   64 1    
     5    2    3 2    
     6    2    4 am   BACKBONE|DICT|INTERRES
     7    4    5 1    
     8    4   65 1    
     9    5    6 1    
    10    5   25 1    
    11    5   66 1    
    12    6    7 1    
    13    6   67 1    
    14    6   68 1    
    15    7    8 1    
    16    8    9 1    
    17    8   69 1    
    18    8   70 1    
    19    9   10 ar   
    20    9   14 ar   
    21   10   11 ar   
    22   10   71 1    
    23   11   12 ar   
    24   11   61 1    
    25   12   13 ar   
    26   12   72 1    
    27   13   14 ar   
    28   13   15 1    
    29   14   73 1    
    30   15   16 1    
    31   15   74 1    
    32   15   75 1    
    33   16   17 1    
    34   17   18 1    
    35   17   76 1    
    36   17   77 1    
    37   18   19 1    
    38   18   27 1    
    39   18   78 1    
    40   19   20 am   BACKBONE|DICT|INTERRES
    41   19   79 1    
    42   20   21 2    
    43   20   22 1    
    44   22   23 1    
    45   22   24 1    
    46   22   80 1    
    47   23   81 1    
    48   23   82 1    
    49   23   83 1    
    50   24   25 am   BACKBONE|DICT|INTERRES
    51   24   84 1    
    52   25   26 2    
    53   27   28 2    
    54   27   29 am   BACKBONE|DICT|INTERRES
    55   29   30 1    
    56   29   85 1    
    57   30   31 1    
    58   30   32 1    
    59   30   86 1    
    60   31   87 1    
    61   31   88 1    
    62   31   89 1    
    63   32   33 2    
    64   32   34 am   BACKBONE|DICT|INTERRES
    65   34   35 1    
    66   34   90 1    
    67   35   36 1    
    68   35   37 1    
    69   35   91 1    
    70   36   92 1    
    71   36   93 1    
    72   36   94 1    
    73   37   38 2    
    74   37   39 am   BACKBONE|DICT|INTERRES
    75   39   40 1    
    76   39   95 1    
    77   40   41 1    
    78   40   42 1    
    79   40   96 1    
    80   41   97 1    
    81   41   98 1    
    82   41   99 1    
    83   42   43 2    
    84   42   44 am   BACKBONE|DICT|INTERRES
    85   44   45 1    
    86   44  100 1    
    87   45   46 1    
    88   45   47 1    
    89   45  101 1    
    90   46  102 1    
    91   46  103 1    
    92   46  104 1    
    93   47   48 2    
    94   47   49 am   BACKBONE|DICT|INTERRES
    95   49   50 1    
    96   49  105 1    
    97   50   51 1    
    98   50   52 1    
    99   50  106 1    
   100   51  107 1    
   101   51  108 1    
   102   51  109 1    
   103   52   53 2    
   104   52   54 am   BACKBONE|DICT|INTERRES
   105   54   55 1    
   106   54  110 1    
   107   55   56 1    
   108   55   59 1    
   109   55  111 1    
   110   56   57 am   BACKBONE|DICT|INTERRES
   111   56   58 2    
   112   57  112 1    
   113   57  113 1    
   114   59   60 1    
   115   59  114 1    
   116   59  115 1    
   117   60   61 1    
   118   61  116 1    
   119   61  117 1    
@<TRIPOS>SUBSTRUCTURE
     1 UNK         1 GROUP             0       ****    0 ROOT    
