@<TRIPOS>MOLECULE
3R8
117   119    1
SMALL
USER_CHARGES


@<TRIPOS>ATOM
      1 CA         14.5430  -24.0689  -42.1940 C.3       0 UNK        -0.2013 
      2 C          15.0835  -24.4941  -43.5512 C.2       0 UNK         0.4866 
      3 O          14.7951  -23.8436  -44.5566 O.2       0 UNK        -0.5176 
      4 N          15.8567  -25.5860  -43.5892 N.am      1 UNK        -0.4884 
      5 CA         16.5036  -26.1145  -44.7957 C.3       1 UNK         0.0853 
      6 C6         17.0254  -27.5560  -44.5860 C.3       10 UNK        -0.0849 
      7 S7         15.7407  -28.7278  -44.0190 S.3       10 UNK        -0.2776 
      8 C8         16.5820  -30.3417  -44.1966 C.3       10 UNK         0.0316 
      9 C9         18.0283  -30.2878  -43.7243 C.ar      10 UNK        -0.0863 
     10 C10        18.3211  -30.0673  -42.3752 C.ar      10 UNK        -0.1009 
     11 C11        19.6426  -29.8886  -41.9573 C.ar      10 UNK        -0.0712 
     12 C12        20.6744  -29.9592  -42.8969 C.ar      10 UNK        -0.0894 
     13 C13        20.3964  -30.2102  -44.2443 C.ar      10 UNK        -0.0745 
     14 C14        19.0711  -30.3799  -44.6508 C.ar      10 UNK        -0.0972 
     15 C15        21.5211  -30.2619  -45.2697 C.3       10 UNK         0.0209 
     16 S16        21.6220  -28.7298  -46.2541 S.3       10 UNK        -0.2568 
     17 C17        22.0346  -27.5189  -44.9565 C.3       10 UNK        -0.0983 
     18 CA         21.9785  -26.0413  -45.4165 C.3       3 UNK         0.0876 
     19 N          20.7041  -25.7151  -46.0646 N.am      3 UNK        -0.4424 
     20 C          20.4219  -24.5618  -46.6847 C.2       2 UNK         0.4918 
     21 O          21.2394  -23.6554  -46.8459 O.2       2 UNK        -0.4875 
     22 CA         18.9820  -24.3722  -47.2038 C.3       2 UNK         0.0481 
     23 CB         18.9303  -24.6149  -48.7209 C.3       2 UNK        -0.1831 
     24 N          17.9578  -25.2007  -46.5502 N.am      2 UNK        -0.4498 
     25 C          17.6657  -25.2009  -45.2405 C.2       1 UNK         0.5027 
     26 O          18.3060  -24.5661  -44.3967 O.2       1 UNK        -0.4969 
     27 C          22.2685  -25.1523  -44.1882 C.2       3 UNK         0.5005 
     28 O          23.4373  -24.9445  -43.8613 O.2       3 UNK        -0.5279 
     29 N          21.2071  -24.7147  -43.4899 N.am      4 UNK        -0.4463 
     30 CA         21.1752  -24.0735  -42.1671 C.3       4 UNK         0.0283 
     31 CB         21.9912  -22.7667  -42.1285 C.3       4 UNK        -0.1875 
     32 C          21.5616  -25.0177  -41.0105 C.2       4 UNK         0.4949 
     33 O          20.8573  -25.0432  -40.0013 O.2       4 UNK        -0.5039 
     34 N          22.6410  -25.7896  -41.1733 N.am      5 UNK        -0.4663 
     35 CA         23.1239  -26.8047  -40.2402 C.3       5 UNK         0.0242 
     36 CB         23.9688  -26.1413  -39.1370 C.3       5 UNK        -0.1982 
     37 C          23.9478  -27.8440  -41.0115 C.2       5 UNK         0.5017 
     38 O          24.4785  -27.5305  -42.0795 O.2       5 UNK        -0.5012 
     39 N          24.0704  -29.0476  -40.4449 N.am      6 UNK        -0.4439 
     40 CA         24.9075  -30.1402  -40.9336 C.3       6 UNK         0.0297 
     41 CB         24.2412  -30.8471  -42.1304 C.3       6 UNK        -0.2006 
     42 C          25.1418  -31.1244  -39.7826 C.2       6 UNK         0.4892 
     43 O          24.4334  -31.0704  -38.7739 O.2       6 UNK        -0.5089 
     44 N          26.1151  -32.0246  -39.9674 N.am      7 UNK        -0.4243 
     45 CA         26.4064  -33.1246  -39.0417 C.3       7 UNK         0.0196 
     46 CB         27.8254  -33.6496  -39.3157 C.3       7 UNK        -0.2007 
     47 C          25.3837  -34.2741  -39.1284 C.2       7 UNK         0.5020 
     48 O          25.2724  -35.0517  -38.1804 O.2       7 UNK        -0.5147 
     49 N          24.6676  -34.3704  -40.2553 N.am      8 UNK        -0.4734 
     50 CA         23.6603  -35.3892  -40.5359 C.3       8 UNK         0.0238 
     51 CB         24.3044  -36.5473  -41.3232 C.3       8 UNK        -0.1912 
     52 C          22.4924  -34.7307  -41.2814 C.2       8 UNK         0.5038 
     53 O          22.3502  -34.9157  -42.4915 O.2       8 UNK        -0.5046 
     54 N          21.7070  -33.9355  -40.5457 N.am      9 UNK        -0.4200 
     55 CA         20.4761  -33.2822  -41.0187 C.3       9 UNK         0.0839 
     56 C          19.3894  -34.2873  -41.4891 C.2       9 UNK         0.5513 
     57 N          18.5838  -33.9056  -42.4708 N.am      9 UNK        -0.7519 
     58 O          19.2413  -35.3793  -40.9437 O.2       9 UNK        -0.4960 
     59 C59        19.8998  -32.3352  -39.9349 C.3       10 UNK        -0.0876 
     60 S60        20.9547  -30.8673  -39.6980 S.3       10 UNK        -0.2414 
     61 C61        19.9494  -29.5763  -40.4986 C.3       10 UNK         0.0169 
     62 H62        14.8643  -24.7408  -41.3982 H         1 UNK         0.0903 
     63 H63        14.8897  -23.0650  -41.9504 H         1 UNK         0.0903 
     64 H64        13.4535  -24.0592  -42.2100 H         1 UNK         0.0903 
     65 H65        16.0645  -26.0820  -42.7344 H         1 UNK         0.3096 
     66 H66        15.7570  -26.1291  -45.5932 H         1 UNK         0.1121 
     67 H67        17.4510  -27.9449  -45.5134 H         1 UNK         0.0849 
     68 H68        17.8349  -27.5562  -43.8527 H         1 UNK         0.0849 
     69 H69        16.5285  -30.6530  -45.2411 H         1 UNK         0.0865 
     70 H70        16.0387  -31.0952  -43.6247 H         1 UNK         0.0865 
     71 H71        17.5124  -29.9855  -41.6617 H         1 UNK         0.1346 
     72 H72        21.6923  -29.7961  -42.5765 H         1 UNK         0.1412 
     73 H73        18.8532  -30.5405  -45.6981 H         1 UNK         0.1426 
     74 H74        21.3589  -31.1046  -45.9433 H         1 UNK         0.0716 
     75 H75        22.4804  -30.4423  -44.7834 H         1 UNK         0.0716 
     76 H76        23.0280  -27.7633  -44.5736 H         1 UNK         0.0695 
     77 H77        21.3433  -27.6621  -44.1255 H         1 UNK         0.0695 
     78 H78        22.7754  -25.8711  -46.1435 H         1 UNK         0.0983 
     79 H79        19.9893  -26.4253  -46.0188 H         1 UNK         0.3095 
     80 H80        18.7142  -23.3299  -47.0194 H         1 UNK         0.0454 
     81 H81        19.1550  -25.6523  -48.9718 H         1 UNK         0.0851 
     82 H82        19.6569  -23.9900  -49.2424 H         1 UNK         0.0851 
     83 H83        17.9494  -24.3733  -49.1305 H         1 UNK         0.0851 
     84 H84        17.3967  -25.7717  -47.1667 H         1 UNK         0.2976 
     85 H85        20.2872  -24.9114  -43.8724 H         1 UNK         0.3116 
     86 H86        20.1294  -23.8030  -42.0108 H         1 UNK         0.0646 
     87 H87        21.8367  -22.2439  -41.1839 H         1 UNK         0.0847 
     88 H88        21.6920  -22.0886  -42.9276 H         1 UNK         0.0847 
     89 H89        23.0623  -22.9460  -42.2229 H         1 UNK         0.0847 
     90 H90        23.1659  -25.7207  -42.0435 H         1 UNK         0.3040 
     91 H91        22.2696  -27.3092  -39.7853 H         1 UNK         0.1015 
     92 H92        23.3822  -25.4230  -38.5638 H         1 UNK         0.0786 
     93 H93        24.8286  -25.6146  -39.5531 H         1 UNK         0.0786 
     94 H94        24.3481  -26.8823  -38.4322 H         1 UNK         0.0786 
     95 H95        23.6383  -29.2442  -39.5485 H         1 UNK         0.3172 
     96 H96        25.8741  -29.7335  -41.2386 H         1 UNK         0.0595 
     97 H97        23.2977  -31.3152  -41.8466 H         1 UNK         0.0839 
     98 H98        24.8825  -31.6305  -42.5349 H         1 UNK         0.0839 
     99 H99        24.0465  -30.1502  -42.9449 H         1 UNK         0.0839 
    100 H100       26.6643  -31.9863  -40.8147 H         1 UNK         0.2998 
    101 H101       26.3770  -32.7372  -38.0206 H         1 UNK         0.0822 
    102 H102       28.5705  -32.8631  -39.1939 H         1 UNK         0.0787 
    103 H103       28.0859  -34.4500  -38.6215 H         1 UNK         0.0787 
    104 H104       27.9207  -34.0511  -40.3255 H         1 UNK         0.0787 
    105 H105       24.8033  -33.6735  -40.9737 H         1 UNK         0.3055 
    106 H106       23.2594  -35.7936  -39.6031 H         1 UNK         0.1106 
    107 H107       23.5642  -37.3087  -41.5725 H         1 UNK         0.0828 
    108 H108       24.7494  -36.2041  -42.2580 H         1 UNK         0.0828 
    109 H109       25.0863  -37.0345  -40.7404 H         1 UNK         0.0828 
    110 H110       21.9214  -33.8125  -39.5674 H         1 UNK         0.2931 
    111 H111       20.7556  -32.6842  -41.8885 H         1 UNK         0.0412 
    112 H112       18.6925  -33.0029  -42.9079 H         1 UNK         0.3472 
    113 H113       17.8592  -34.5325  -42.7839 H         1 UNK         0.3472 
    114 H114       19.7996  -32.8561  -38.9811 H         1 UNK         0.0970 
    115 H115       18.8920  -32.0052  -40.1941 H         1 UNK         0.0970 
    116 H116       19.0295  -29.4431  -39.9272 H         1 UNK         0.0612 
    117 H117       20.4800  -28.6263  -40.4462 H         1 UNK         0.0612 
@<TRIPOS>BOND
     1    1    2 1    
     2    1   62 1    
     3    1   63 1    
     4    1   64 1    
     5    2    3 2    
     6    2    4 am   BACKBONE|DICT|INTERRES
     7    4    5 1    
     8    4   65 1    
     9    5    6 1    
    10    5   25 1    
    11    5   66 1    
    12    6    7 1    
    13    6   67 1    
    14    6   68 1    
    15    7    8 1    
    16    8    9 1    
    17    8   69 1    
    18    8   70 1    
    19    9   10 ar   
    20    9   14 ar   
    21   10   11 ar   
    22   10   71 1    
    23   11   12 ar   
    24   11   61 1    
    25   12   13 ar   
    26   12   72 1    
    27   13   14 ar   
    28   13   15 1    
    29   14   73 1    
    30   15   16 1    
    31   15   74 1    
    32   15   75 1    
    33   16   17 1    
    34   17   18 1    
    35   17   76 1    
    36   17   77 1    
    37   18   19 1    
    38   18   27 1    
    39   18   78 1    
    40   19   20 am   BACKBONE|DICT|INTERRES
    41   19   79 1    
    42   20   21 2    
    43   20   22 1    
    44   22   23 1    
    45   22   24 1    
    46   22   80 1    
    47   23   81 1    
    48   23   82 1    
    49   23   83 1    
    50   24   25 am   BACKBONE|DICT|INTERRES
    51   24   84 1    
    52   25   26 2    
    53   27   28 2    
    54   27   29 am   BACKBONE|DICT|INTERRES
    55   29   30 1    
    56   29   85 1    
    57   30   31 1    
    58   30   32 1    
    59   30   86 1    
    60   31   87 1    
    61   31   88 1    
    62   31   89 1    
    63   32   33 2    
    64   32   34 am   BACKBONE|DICT|INTERRES
    65   34   35 1    
    66   34   90 1    
    67   35   36 1    
    68   35   37 1    
    69   35   91 1    
    70   36   92 1    
    71   36   93 1    
    72   36   94 1    
    73   37   38 2    
    74   37   39 am   BACKBONE|DICT|INTERRES
    75   39   40 1    
    76   39   95 1    
    77   40   41 1    
    78   40   42 1    
    79   40   96 1    
    80   41   97 1    
    81   41   98 1    
    82   41   99 1    
    83   42   43 2    
    84   42   44 am   BACKBONE|DICT|INTERRES
    85   44   45 1    
    86   44  100 1    
    87   45   46 1    
    88   45   47 1    
    89   45  101 1    
    90   46  102 1    
    91   46  103 1    
    92   46  104 1    
    93   47   48 2    
    94   47   49 am   BACKBONE|DICT|INTERRES
    95   49   50 1    
    96   49  105 1    
    97   50   51 1    
    98   50   52 1    
    99   50  106 1    
   100   51  107 1    
   101   51  108 1    
   102   51  109 1    
   103   52   53 2    
   104   52   54 am   BACKBONE|DICT|INTERRES
   105   54   55 1    
   106   54  110 1    
   107   55   56 1    
   108   55   59 1    
   109   55  111 1    
   110   56   57 am   BACKBONE|DICT|INTERRES
   111   56   58 2    
   112   57  112 1    
   113   57  113 1    
   114   59   60 1    
   115   59  114 1    
   116   59  115 1    
   117   60   61 1    
   118   61  116 1    
   119   61  117 1    
@<TRIPOS>SUBSTRUCTURE
     1 UNK         1 GROUP             0       ****    0 ROOT    
