@<TRIPOS>MOLECULE
3R8
117   119    1
SMALL
USER_CHARGES


@<TRIPOS>ATOM
      1 CA         13.6025  -23.4538  -45.3484 C.3       0 UNK        -0.2013 
      2 C          14.5292  -24.4655  -46.0056 C.2       0 UNK         0.4866 
      3 O          14.5336  -24.5863  -47.2308 O.2       0 UNK        -0.5176 
      4 N          15.3148  -25.1937  -45.2010 N.am      1 UNK        -0.4884 
      5 CA         16.2545  -26.2269  -45.6605 C.3       1 UNK         0.0853 
      6 C6         16.6860  -27.1666  -44.5057 C.3       10 UNK        -0.0849 
      7 S7         15.2932  -28.1455  -43.8476 S.3       10 UNK        -0.2776 
      8 C8         15.7946  -28.4086  -42.1132 C.3       10 UNK         0.0316 
      9 C9         17.1413  -29.1126  -41.9999 C.ar      10 UNK        -0.0863 
     10 C10        17.2715  -30.4568  -42.3685 C.ar      10 UNK        -0.1009 
     11 C11        18.5144  -31.0941  -42.2950 C.ar      10 UNK        -0.0712 
     12 C12        19.6258  -30.3806  -41.8396 C.ar      10 UNK        -0.0894 
     13 C13        19.5057  -29.0448  -41.4526 C.ar      10 UNK        -0.0745 
     14 C14        18.2601  -28.4157  -41.5310 C.ar      10 UNK        -0.0972 
     15 C15        20.7303  -28.2876  -40.9651 C.3       10 UNK         0.0209 
     16 S16        21.7511  -27.7219  -42.3583 S.3       10 UNK        -0.2568 
     17 C17        20.7738  -26.2975  -42.9295 C.3       10 UNK        -0.0983 
     18 CA         21.3529  -25.6257  -44.1971 C.3       3 UNK         0.0876 
     19 N          20.3260  -24.7969  -44.8219 N.am      3 UNK        -0.4424 
     20 C          20.3364  -24.3509  -46.0825 C.2       2 UNK         0.4918 
     21 O          21.2727  -24.5175  -46.8664 O.2       2 UNK        -0.4875 
     22 CA         19.0375  -23.6518  -46.5389 C.3       2 UNK         0.0481 
     23 CB         18.9905  -23.3984  -48.0604 C.3       2 UNK        -0.1831 
     24 N          17.8342  -24.3718  -46.0868 N.am      2 UNK        -0.4498 
     25 C          17.5009  -25.6460  -46.3642 C.2       1 UNK         0.5027 
     26 O          18.1442  -26.3741  -47.1215 O.2       1 UNK        -0.4969 
     27 C          22.6308  -24.8210  -43.8812 C.2       3 UNK         0.5005 
     28 O          22.5498  -23.6328  -43.5587 O.2       3 UNK        -0.5279 
     29 N          23.7762  -25.5135  -43.9160 N.am      4 UNK        -0.4463 
     30 CA         25.0926  -25.0221  -43.5019 C.3       4 UNK         0.0283 
     31 CB         26.0885  -25.2154  -44.6614 C.3       4 UNK        -0.1875 
     32 C          25.5426  -25.7343  -42.2106 C.2       4 UNK         0.4949 
     33 O          26.7009  -26.1372  -42.1013 O.2       4 UNK        -0.5039 
     34 N          24.6025  -25.8965  -41.2658 N.am      5 UNK        -0.4663 
     35 CA         24.7444  -26.5476  -39.9529 C.3       5 UNK         0.0242 
     36 CB         25.7394  -25.7778  -39.0581 C.3       5 UNK        -0.1982 
     37 C          25.0541  -28.0589  -40.0178 C.2       5 UNK         0.5017 
     38 O          25.5783  -28.6200  -39.0538 O.2       5 UNK        -0.5012 
     39 N          24.6827  -28.7120  -41.1264 N.am      6 UNK        -0.4439 
     40 CA         24.8190  -30.1509  -41.3686 C.3       6 UNK         0.0297 
     41 CB         24.8925  -30.3898  -42.8883 C.3       6 UNK        -0.2006 
     42 C          23.6765  -30.9439  -40.7035 C.2       6 UNK         0.4892 
     43 O          22.9602  -31.6836  -41.3794 O.2       6 UNK        -0.5089 
     44 N          23.5212  -30.7660  -39.3843 N.am      7 UNK        -0.4243 
     45 CA         22.4241  -31.2824  -38.5540 C.3       7 UNK         0.0196 
     46 CB         22.5673  -30.7070  -37.1356 C.3       7 UNK        -0.2007 
     47 C          22.2843  -32.8161  -38.5056 C.2       7 UNK         0.5020 
     48 O          21.2325  -33.3076  -38.0965 O.2       7 UNK        -0.5147 
     49 N          23.3252  -33.5473  -38.9252 N.am      8 UNK        -0.4734 
     50 CA         23.2965  -35.0004  -39.1110 C.3       8 UNK         0.0238 
     51 CB         24.7387  -35.5178  -39.2402 C.3       8 UNK        -0.1912 
     52 C          22.4541  -35.4459  -40.3234 C.2       8 UNK         0.5038 
     53 O          22.0345  -36.6034  -40.3565 O.2       8 UNK        -0.5046 
     54 N          22.2340  -34.5403  -41.2896 N.am      9 UNK        -0.4200 
     55 CA         21.4659  -34.7523  -42.5300 C.3       9 UNK         0.0839 
     56 C          22.0898  -35.7868  -43.5167 C.2       9 UNK         0.5513 
     57 N          23.3752  -36.1036  -43.4139 N.am      9 UNK        -0.7519 
     58 O          21.4125  -36.2879  -44.4109 O.2       9 UNK        -0.4960 
     59 C59        19.9469  -34.9921  -42.2780 C.3       10 UNK        -0.0876 
     60 S60        19.1661  -33.6202  -41.3623 S.3       10 UNK        -0.2414 
     61 C61        18.6820  -32.5376  -42.7436 C.3       10 UNK         0.0169 
     62 H62        13.7006  -23.4545  -44.2630 H         1 UNK         0.0903 
     63 H63        13.8266  -22.4501  -45.7086 H         1 UNK         0.0903 
     64 H64        12.5655  -23.6804  -45.5946 H         1 UNK         0.0903 
     65 H65        15.2480  -25.0752  -44.1997 H         1 UNK         0.3096 
     66 H66        15.7408  -26.8331  -46.4108 H         1 UNK         0.1121 
     67 H67        17.4463  -27.8758  -44.8409 H         1 UNK         0.0849 
     68 H68        17.1425  -26.5912  -43.6983 H         1 UNK         0.0849 
     69 H69        15.8123  -27.4476  -41.5965 H         1 UNK         0.0865 
     70 H70        15.0332  -29.0078  -41.6118 H         1 UNK         0.0865 
     71 H71        16.4082  -30.9966  -42.7334 H         1 UNK         0.1346 
     72 H72        20.5894  -30.8681  -41.7932 H         1 UNK         0.1412 
     73 H73        18.1666  -27.3782  -41.2404 H         1 UNK         0.1426 
     74 H74        21.3331  -28.9359  -40.3297 H         1 UNK         0.0716 
     75 H75        20.4431  -27.4369  -40.3452 H         1 UNK         0.0716 
     76 H76        20.6638  -25.5797  -42.1139 H         1 UNK         0.0695 
     77 H77        19.7711  -26.6689  -43.1453 H         1 UNK         0.0695 
     78 H78        21.6084  -26.4064  -44.9179 H         1 UNK         0.0983 
     79 H79        19.5315  -24.5672  -44.2451 H         1 UNK         0.3095 
     80 H80        19.0212  -22.6802  -46.0430 H         1 UNK         0.0454 
     81 H81        19.0570  -24.3257  -48.6301 H         1 UNK         0.0851 
     82 H82        19.8203  -22.7648  -48.3759 H         1 UNK         0.0851 
     83 H83        18.0694  -22.8929  -48.3499 H         1 UNK         0.0851 
     84 H84        17.2231  -23.8627  -45.4633 H         1 UNK         0.2976 
     85 H85        23.7314  -26.4937  -44.1598 H         1 UNK         0.3116 
     86 H86        25.0476  -23.9553  -43.2733 H         1 UNK         0.0646 
     87 H87        26.2233  -26.2693  -44.9078 H         1 UNK         0.0847 
     88 H88        27.0693  -24.8108  -44.4076 H         1 UNK         0.0847 
     89 H89        25.7523  -24.7008  -45.5616 H         1 UNK         0.0847 
     90 H90        23.6804  -25.5363  -41.4711 H         1 UNK         0.3040 
     91 H91        23.7638  -26.4768  -39.4792 H         1 UNK         0.1015 
     92 H92        26.7636  -25.8649  -39.4218 H         1 UNK         0.0786 
     93 H93        25.7259  -26.1602  -38.0366 H         1 UNK         0.0786 
     94 H94        25.4899  -24.7180  -39.0070 H         1 UNK         0.0786 
     95 H95        24.1882  -28.1850  -41.8321 H         1 UNK         0.3172 
     96 H96        25.7566  -30.4986  -40.9300 H         1 UNK         0.0595 
     97 H97        25.0406  -31.4474  -43.1111 H         1 UNK         0.0839 
     98 H98        25.7246  -29.8464  -43.3363 H         1 UNK         0.0839 
     99 H99        23.9762  -30.0767  -43.3910 H         1 UNK         0.0839 
    100 H100       24.1824  -30.1466  -38.9275 H         1 UNK         0.2998 
    101 H101       21.4923  -30.9066  -38.9808 H         1 UNK         0.0822 
    102 H102       21.7490  -31.0362  -36.4934 H         1 UNK         0.0787 
    103 H103       23.4991  -31.0243  -36.6656 H         1 UNK         0.0787 
    104 H104       22.5493  -29.6169  -37.1452 H         1 UNK         0.0787 
    105 H105       24.1548  -33.0598  -39.2306 H         1 UNK         0.3055 
    106 H106       22.8472  -35.4517  -38.2233 H         1 UNK         0.1106 
    107 H107       24.7551  -36.6025  -39.3567 H         1 UNK         0.0828 
    108 H108       25.2473  -35.0899  -40.1049 H         1 UNK         0.0828 
    109 H109       25.3263  -35.2815  -38.3529 H         1 UNK         0.0828 
    110 H110       22.6009  -33.6005  -41.1734 H         1 UNK         0.2931 
    111 H111       21.5490  -33.8053  -43.0642 H         1 UNK         0.0412 
    112 H112       23.9471  -35.6895  -42.6956 H         1 UNK         0.3472 
    113 H113       23.7749  -36.7649  -44.0613 H         1 UNK         0.3472 
    114 H114       19.4094  -35.1244  -43.2188 H         1 UNK         0.0970 
    115 H115       19.7942  -35.9155  -41.7175 H         1 UNK         0.0970 
    116 H116       17.7639  -32.9202  -43.1918 H         1 UNK         0.0612 
    117 H117       19.4457  -32.5695  -43.5219 H         1 UNK         0.0612 
@<TRIPOS>BOND
     1    1    2 1    
     2    1   62 1    
     3    1   63 1    
     4    1   64 1    
     5    2    3 2    
     6    2    4 am   BACKBONE|DICT|INTERRES
     7    4    5 1    
     8    4   65 1    
     9    5    6 1    
    10    5   25 1    
    11    5   66 1    
    12    6    7 1    
    13    6   67 1    
    14    6   68 1    
    15    7    8 1    
    16    8    9 1    
    17    8   69 1    
    18    8   70 1    
    19    9   10 ar   
    20    9   14 ar   
    21   10   11 ar   
    22   10   71 1    
    23   11   12 ar   
    24   11   61 1    
    25   12   13 ar   
    26   12   72 1    
    27   13   14 ar   
    28   13   15 1    
    29   14   73 1    
    30   15   16 1    
    31   15   74 1    
    32   15   75 1    
    33   16   17 1    
    34   17   18 1    
    35   17   76 1    
    36   17   77 1    
    37   18   19 1    
    38   18   27 1    
    39   18   78 1    
    40   19   20 am   BACKBONE|DICT|INTERRES
    41   19   79 1    
    42   20   21 2    
    43   20   22 1    
    44   22   23 1    
    45   22   24 1    
    46   22   80 1    
    47   23   81 1    
    48   23   82 1    
    49   23   83 1    
    50   24   25 am   BACKBONE|DICT|INTERRES
    51   24   84 1    
    52   25   26 2    
    53   27   28 2    
    54   27   29 am   BACKBONE|DICT|INTERRES
    55   29   30 1    
    56   29   85 1    
    57   30   31 1    
    58   30   32 1    
    59   30   86 1    
    60   31   87 1    
    61   31   88 1    
    62   31   89 1    
    63   32   33 2    
    64   32   34 am   BACKBONE|DICT|INTERRES
    65   34   35 1    
    66   34   90 1    
    67   35   36 1    
    68   35   37 1    
    69   35   91 1    
    70   36   92 1    
    71   36   93 1    
    72   36   94 1    
    73   37   38 2    
    74   37   39 am   BACKBONE|DICT|INTERRES
    75   39   40 1    
    76   39   95 1    
    77   40   41 1    
    78   40   42 1    
    79   40   96 1    
    80   41   97 1    
    81   41   98 1    
    82   41   99 1    
    83   42   43 2    
    84   42   44 am   BACKBONE|DICT|INTERRES
    85   44   45 1    
    86   44  100 1    
    87   45   46 1    
    88   45   47 1    
    89   45  101 1    
    90   46  102 1    
    91   46  103 1    
    92   46  104 1    
    93   47   48 2    
    94   47   49 am   BACKBONE|DICT|INTERRES
    95   49   50 1    
    96   49  105 1    
    97   50   51 1    
    98   50   52 1    
    99   50  106 1    
   100   51  107 1    
   101   51  108 1    
   102   51  109 1    
   103   52   53 2    
   104   52   54 am   BACKBONE|DICT|INTERRES
   105   54   55 1    
   106   54  110 1    
   107   55   56 1    
   108   55   59 1    
   109   55  111 1    
   110   56   57 am   BACKBONE|DICT|INTERRES
   111   56   58 2    
   112   57  112 1    
   113   57  113 1    
   114   59   60 1    
   115   59  114 1    
   116   59  115 1    
   117   60   61 1    
   118   61  116 1    
   119   61  117 1    
@<TRIPOS>SUBSTRUCTURE
     1 UNK         1 GROUP             0       ****    0 ROOT    
