@<TRIPOS>MOLECULE
3R8
117   119    1
SMALL
USER_CHARGES


@<TRIPOS>ATOM
      1 CA         15.1574  -24.0143  -48.2460 C.3       0 UNK        -0.2013 
      2 C          16.3093  -25.0012  -48.1276 C.2       0 UNK         0.4866 
      3 O          16.6438  -25.6731  -49.1036 O.2       0 UNK        -0.5176 
      4 N          16.9190  -25.0932  -46.9422 N.am      1 UNK        -0.4884 
      5 CA         18.0606  -25.9527  -46.6372 C.3       1 UNK         0.0853 
      6 C6         17.6241  -27.4120  -46.3493 C.3       10 UNK        -0.0849 
      7 S7         18.9876  -28.6074  -46.5482 S.3       10 UNK        -0.2776 
      8 C8         18.2508  -30.1084  -45.8274 C.3       10 UNK         0.0316 
      9 C9         18.3405  -30.1141  -44.3077 C.ar      10 UNK        -0.0863 
     10 C10        19.4792  -30.6253  -43.6778 C.ar      10 UNK        -0.1009 
     11 C11        19.5621  -30.6605  -42.2830 C.ar      10 UNK        -0.0712 
     12 C12        18.4981  -30.1769  -41.5177 C.ar      10 UNK        -0.0894 
     13 C13        17.3638  -29.6391  -42.1342 C.ar      10 UNK        -0.0745 
     14 C14        17.2854  -29.6254  -43.5303 C.ar      10 UNK        -0.0972 
     15 C15        16.2179  -29.0799  -41.2981 C.3       10 UNK         0.0209 
     16 S16        16.7635  -27.8424  -40.0719 S.3       10 UNK        -0.2568 
     17 C17        17.4757  -26.5274  -41.1203 C.3       10 UNK        -0.0983 
     18 CA         19.0254  -26.5726  -41.2030 C.3       3 UNK         0.0876 
     19 N          19.4963  -25.8891  -42.4151 N.am      3 UNK        -0.4424 
     20 C          20.7376  -25.9401  -42.9141 C.2       2 UNK         0.4918 
     21 O          21.6631  -26.5344  -42.3645 O.2       2 UNK        -0.4875 
     22 CA         20.9805  -25.1798  -44.2337 C.3       2 UNK         0.0481 
     23 CB         22.4417  -25.2759  -44.7105 C.3       2 UNK        -0.1831 
     24 N          20.0990  -25.6421  -45.3090 N.am      2 UNK        -0.4498 
     25 C          18.8055  -25.3264  -45.4464 C.2       1 UNK         0.5027 
     26 O          18.1956  -24.5933  -44.6601 O.2       1 UNK        -0.4969 
     27 C          19.7098  -26.0746  -39.9049 C.2       3 UNK         0.5005 
     28 O          19.7213  -26.7926  -38.9041 O.2       3 UNK        -0.5279 
     29 N          20.2963  -24.8688  -39.9445 N.am      4 UNK        -0.4463 
     30 CA         21.1269  -24.3045  -38.8772 C.3       4 UNK         0.0283 
     31 CB         21.2783  -22.7923  -39.1114 C.3       4 UNK        -0.1875 
     32 C          22.5146  -24.9688  -38.7530 C.2       4 UNK         0.4949 
     33 O          23.1612  -24.7987  -37.7188 O.2       4 UNK        -0.5039 
     34 N          22.9571  -25.6885  -39.7923 N.am      5 UNK        -0.4663 
     35 CA         24.2188  -26.4270  -39.8394 C.3       5 UNK         0.0242 
     36 CB         24.9392  -26.0621  -41.1511 C.3       5 UNK        -0.1982 
     37 C          23.9507  -27.9397  -39.7656 C.2       5 UNK         0.5017 
     38 O          22.7955  -28.3697  -39.7890 O.2       5 UNK        -0.5012 
     39 N          25.0333  -28.7286  -39.6926 N.am      6 UNK        -0.4439 
     40 CA         24.9907  -30.1964  -39.7191 C.3       6 UNK         0.0297 
     41 CB         26.3767  -30.7614  -39.3693 C.3       6 UNK        -0.2006 
     42 C          24.5006  -30.7631  -41.0646 C.2       6 UNK         0.4892 
     43 O          23.8461  -31.8048  -41.0645 O.2       6 UNK        -0.5089 
     44 N          24.8390  -30.0604  -42.1609 N.am      7 UNK        -0.4243 
     45 CA         24.3740  -30.1834  -43.5539 C.3       7 UNK         0.0196 
     46 CB         23.2142  -29.1951  -43.7919 C.3       7 UNK        -0.2007 
     47 C          24.0885  -31.6080  -44.0783 C.2       7 UNK         0.5020 
     48 O          23.1284  -31.8116  -44.8224 O.2       7 UNK        -0.5147 
     49 N          24.9372  -32.5647  -43.6766 N.am      8 UNK        -0.4734 
     50 CA         24.9190  -33.9927  -44.0179 C.3       8 UNK         0.0238 
     51 CB         25.2322  -34.1871  -45.5177 C.3       8 UNK        -0.1912 
     52 C          23.6559  -34.7727  -43.5859 C.2       8 UNK         0.5038 
     53 O          23.4809  -35.8990  -44.0560 O.2       8 UNK        -0.5046 
     54 N          22.8133  -34.2102  -42.7041 N.am      9 UNK        -0.4200 
     55 CA         21.6128  -34.8903  -42.1794 C.3       9 UNK         0.0839 
     56 C          21.8714  -35.7661  -40.9188 C.2       9 UNK         0.5513 
     57 N          23.0555  -35.7345  -40.3181 N.am      9 UNK        -0.7519 
     58 O          20.9882  -36.5064  -40.4929 O.2       9 UNK        -0.4960 
     59 C59        20.3973  -33.9358  -42.0257 C.3       10 UNK        -0.0876 
     60 S60        20.5333  -32.7167  -40.6736 S.3       10 UNK        -0.2414 
     61 C61        20.8175  -31.1801  -41.6009 C.3       10 UNK         0.0169 
     62 H62        14.2448  -24.5358  -48.5333 H         1 UNK         0.0903 
     63 H63        14.9687  -23.4932  -47.3075 H         1 UNK         0.0903 
     64 H64        15.3788  -23.2687  -49.0093 H         1 UNK         0.0903 
     65 H65        16.6501  -24.4934  -46.1702 H         1 UNK         0.3096 
     66 H66        18.7326  -25.9338  -47.4989 H         1 UNK         0.1121 
     67 H67        16.8386  -27.7134  -47.0442 H         1 UNK         0.0849 
     68 H68        17.1882  -27.4940  -45.3532 H         1 UNK         0.0849 
     69 H69        17.2138  -30.2070  -46.1526 H         1 UNK         0.0865 
     70 H70        18.7734  -30.9793  -46.2262 H         1 UNK         0.0865 
     71 H71        20.3041  -30.9916  -44.2749 H         1 UNK         0.1346 
     72 H72        18.5657  -30.1962  -40.4383 H         1 UNK         0.1412 
     73 H73        16.4011  -29.2330  -44.0131 H         1 UNK         0.1426 
     74 H74        15.7341  -29.9041  -40.7725 H         1 UNK         0.0716 
     75 H75        15.4539  -28.6294  -41.9336 H         1 UNK         0.0716 
     76 H76        17.1354  -25.5587  -40.7499 H         1 UNK         0.0695 
     77 H77        17.0428  -26.6285  -42.1172 H         1 UNK         0.0695 
     78 H78        19.3335  -27.6126  -41.3175 H         1 UNK         0.0983 
     79 H79        18.8037  -25.3733  -42.9492 H         1 UNK         0.3095 
     80 H80        20.7694  -24.1264  -44.0381 H         1 UNK         0.0454 
     81 H81        23.1303  -24.9225  -43.9418 H         1 UNK         0.0851 
     82 H82        22.6103  -24.6648  -45.5972 H         1 UNK         0.0851 
     83 H83        22.7207  -26.3015  -44.9529 H         1 UNK         0.0851 
     84 H84        20.4986  -26.3066  -45.9573 H         1 UNK         0.2976 
     85 H85        20.2322  -24.3387  -40.8013 H         1 UNK         0.3116 
     86 H86        20.6092  -24.4513  -37.9269 H         1 UNK         0.0646 
     87 H87        20.3094  -22.2931  -39.1318 H         1 UNK         0.0847 
     88 H88        21.7891  -22.5775  -40.0509 H         1 UNK         0.0847 
     89 H89        21.8605  -22.3303  -38.3127 H         1 UNK         0.0847 
     90 H90        22.3300  -25.8705  -40.5698 H         1 UNK         0.3040 
     91 H91        24.8561  -26.1532  -38.9957 H         1 UNK         0.1015 
     92 H92        25.9258  -26.5227  -41.2081 H         1 UNK         0.0786 
     93 H93        25.0854  -24.9849  -41.2338 H         1 UNK         0.0786 
     94 H94        24.3747  -26.3879  -42.0256 H         1 UNK         0.0786 
     95 H95        25.9471  -28.2999  -39.6507 H         1 UNK         0.3172 
     96 H96        24.2869  -30.5242  -38.9508 H         1 UNK         0.0595 
     97 H97        27.1365  -30.4524  -40.0882 H         1 UNK         0.0839 
     98 H98        26.3607  -31.8524  -39.3617 H         1 UNK         0.0839 
     99 H99        26.6990  -30.4388  -38.3790 H         1 UNK         0.0839 
    100 H100       25.4311  -29.2599  -41.9946 H         1 UNK         0.2998 
    101 H101       25.2059  -29.8352  -44.1680 H         1 UNK         0.0822 
    102 H102       23.5393  -28.1702  -43.6178 H         1 UNK         0.0787 
    103 H103       22.8428  -29.2404  -44.8164 H         1 UNK         0.0787 
    104 H104       22.3726  -29.3798  -43.1271 H         1 UNK         0.0787 
    105 H105       25.6605  -32.2867  -43.0273 H         1 UNK         0.3055 
    106 H106       25.7381  -34.4425  -43.4545 H         1 UNK         0.1106 
    107 H107       24.4224  -33.8217  -46.1499 H         1 UNK         0.0828 
    108 H108       25.3801  -35.2408  -45.7578 H         1 UNK         0.0828 
    109 H109       26.1442  -33.6638  -45.8046 H         1 UNK         0.0828 
    110 H110       23.0384  -33.3055  -42.3029 H         1 UNK         0.2931 
    111 H111       21.2931  -35.6092  -42.9362 H         1 UNK         0.0412 
    112 H112       23.2156  -36.3114  -39.5072 H         1 UNK         0.3472 
    113 H113       23.7775  -35.1152  -40.6500 H         1 UNK         0.3472 
    114 H114       20.2173  -33.4205  -42.9700 H         1 UNK         0.0970 
    115 H115       19.4933  -34.5204  -41.8459 H         1 UNK         0.0970 
    116 H116       21.6017  -31.3636  -42.3340 H         1 UNK         0.0612 
    117 H117       21.1983  -30.4174  -40.9201 H         1 UNK         0.0612 
@<TRIPOS>BOND
     1    1    2 1    
     2    1   62 1    
     3    1   63 1    
     4    1   64 1    
     5    2    3 2    
     6    2    4 am   BACKBONE|DICT|INTERRES
     7    4    5 1    
     8    4   65 1    
     9    5    6 1    
    10    5   25 1    
    11    5   66 1    
    12    6    7 1    
    13    6   67 1    
    14    6   68 1    
    15    7    8 1    
    16    8    9 1    
    17    8   69 1    
    18    8   70 1    
    19    9   10 ar   
    20    9   14 ar   
    21   10   11 ar   
    22   10   71 1    
    23   11   12 ar   
    24   11   61 1    
    25   12   13 ar   
    26   12   72 1    
    27   13   14 ar   
    28   13   15 1    
    29   14   73 1    
    30   15   16 1    
    31   15   74 1    
    32   15   75 1    
    33   16   17 1    
    34   17   18 1    
    35   17   76 1    
    36   17   77 1    
    37   18   19 1    
    38   18   27 1    
    39   18   78 1    
    40   19   20 am   BACKBONE|DICT|INTERRES
    41   19   79 1    
    42   20   21 2    
    43   20   22 1    
    44   22   23 1    
    45   22   24 1    
    46   22   80 1    
    47   23   81 1    
    48   23   82 1    
    49   23   83 1    
    50   24   25 am   BACKBONE|DICT|INTERRES
    51   24   84 1    
    52   25   26 2    
    53   27   28 2    
    54   27   29 am   BACKBONE|DICT|INTERRES
    55   29   30 1    
    56   29   85 1    
    57   30   31 1    
    58   30   32 1    
    59   30   86 1    
    60   31   87 1    
    61   31   88 1    
    62   31   89 1    
    63   32   33 2    
    64   32   34 am   BACKBONE|DICT|INTERRES
    65   34   35 1    
    66   34   90 1    
    67   35   36 1    
    68   35   37 1    
    69   35   91 1    
    70   36   92 1    
    71   36   93 1    
    72   36   94 1    
    73   37   38 2    
    74   37   39 am   BACKBONE|DICT|INTERRES
    75   39   40 1    
    76   39   95 1    
    77   40   41 1    
    78   40   42 1    
    79   40   96 1    
    80   41   97 1    
    81   41   98 1    
    82   41   99 1    
    83   42   43 2    
    84   42   44 am   BACKBONE|DICT|INTERRES
    85   44   45 1    
    86   44  100 1    
    87   45   46 1    
    88   45   47 1    
    89   45  101 1    
    90   46  102 1    
    91   46  103 1    
    92   46  104 1    
    93   47   48 2    
    94   47   49 am   BACKBONE|DICT|INTERRES
    95   49   50 1    
    96   49  105 1    
    97   50   51 1    
    98   50   52 1    
    99   50  106 1    
   100   51  107 1    
   101   51  108 1    
   102   51  109 1    
   103   52   53 2    
   104   52   54 am   BACKBONE|DICT|INTERRES
   105   54   55 1    
   106   54  110 1    
   107   55   56 1    
   108   55   59 1    
   109   55  111 1    
   110   56   57 am   BACKBONE|DICT|INTERRES
   111   56   58 2    
   112   57  112 1    
   113   57  113 1    
   114   59   60 1    
   115   59  114 1    
   116   59  115 1    
   117   60   61 1    
   118   61  116 1    
   119   61  117 1    
@<TRIPOS>SUBSTRUCTURE
     1 UNK         1 GROUP             0       ****    0 ROOT    
