@<TRIPOS>MOLECULE
3R8
117   119    1
SMALL
USER_CHARGES


@<TRIPOS>ATOM
      1 CA         19.6479  -33.6451  -45.4472 C.3       0 UNK        -0.2013 
      2 C          18.6801  -32.4724  -45.4017 C.2       0 UNK         0.4866 
      3 O          17.7371  -32.4890  -44.6110 O.2       0 UNK        -0.5176 
      4 N          18.9042  -31.4570  -46.2440 N.am      1 UNK        -0.4884 
      5 CA         18.1093  -30.2278  -46.2961 C.3       1 UNK         0.0853 
      6 C6         16.7975  -30.4119  -47.1061 C.3       10 UNK        -0.0849 
      7 S7         15.4751  -29.2226  -46.6903 S.3       10 UNK        -0.2776 
      8 C8         14.9491  -29.7677  -45.0309 C.3       10 UNK         0.0316 
      9 C9         15.6415  -28.9881  -43.9176 C.ar      10 UNK        -0.0863 
     10 C10        16.4196  -29.6509  -42.9621 C.ar      10 UNK        -0.1009 
     11 C11        17.0149  -28.9401  -41.9156 C.ar      10 UNK        -0.0712 
     12 C12        16.8212  -27.5593  -41.8234 C.ar      10 UNK        -0.0894 
     13 C13        16.0642  -26.8796  -42.7814 C.ar      10 UNK        -0.0745 
     14 C14        15.4712  -27.6025  -43.8211 C.ar      10 UNK        -0.0972 
     15 C15        15.8571  -25.3719  -42.6818 C.3       10 UNK         0.0209 
     16 S16        17.4135  -24.4376  -42.4915 S.3       10 UNK        -0.2568 
     17 C17        18.2961  -24.8306  -44.0399 C.3       10 UNK        -0.0983 
     18 CA         19.6047  -25.6241  -43.7846 C.3       3 UNK         0.0876 
     19 N          20.0399  -26.3178  -45.0004 N.am      3 UNK        -0.4424 
     20 C          21.0514  -27.1908  -45.1038 C.2       2 UNK         0.4918 
     21 O          21.7947  -27.5143  -44.1778 O.2       2 UNK        -0.4875 
     22 CA         21.1732  -27.9108  -46.4533 C.3       2 UNK         0.0481 
     23 CB         22.6105  -28.3808  -46.7425 C.3       2 UNK        -0.1831 
     24 N          20.2784  -29.0654  -46.4003 N.am      2 UNK        -0.4498 
     25 C          18.9757  -29.0218  -46.7175 C.2       1 UNK         0.5027 
     26 O          18.4641  -28.0588  -47.2909 O.2       1 UNK        -0.4969 
     27 C          20.7325  -24.7459  -43.1954 C.2       3 UNK         0.5005 
     28 O          20.9211  -23.6066  -43.6287 O.2       3 UNK        -0.5279 
     29 N          21.4783  -25.3189  -42.2467 N.am      4 UNK        -0.4463 
     30 CA         22.6704  -24.7949  -41.5895 C.3       4 UNK         0.0283 
     31 CB         23.8081  -24.5809  -42.6120 C.3       4 UNK        -0.1875 
     32 C          23.0926  -25.8338  -40.5427 C.2       4 UNK         0.4949 
     33 O          22.5852  -26.9583  -40.5544 O.2       4 UNK        -0.5039 
     34 N          24.0628  -25.4803  -39.6918 N.am      5 UNK        -0.4663 
     35 CA         24.6534  -26.3541  -38.6662 C.3       5 UNK         0.0242 
     36 CB         25.3266  -25.4744  -37.5960 C.3       5 UNK        -0.1982 
     37 C          25.6168  -27.4269  -39.2291 C.2       5 UNK         0.5017 
     38 O          26.5659  -27.8193  -38.5475 O.2       5 UNK        -0.5012 
     39 N          25.3644  -27.8963  -40.4568 N.am      6 UNK        -0.4439 
     40 CA         26.1270  -28.9160  -41.1763 C.3       6 UNK         0.0297 
     41 CB         25.9217  -28.7016  -42.6886 C.3       6 UNK        -0.2006 
     42 C          25.7131  -30.3261  -40.7198 C.2       6 UNK         0.4892 
     43 O          25.1923  -31.1031  -41.5219 O.2       6 UNK        -0.5089 
     44 N          25.9102  -30.6109  -39.4241 N.am      7 UNK        -0.4243 
     45 CA         25.4495  -31.8048  -38.7060 C.3       7 UNK         0.0196 
     46 CB         26.2237  -33.0608  -39.1696 C.3       7 UNK        -0.2007 
     47 C          23.9159  -31.9261  -38.8000 C.2       7 UNK         0.5020 
     48 O          23.2183  -31.0104  -38.3625 O.2       7 UNK        -0.5147 
     49 N          23.4110  -33.0069  -39.4064 N.am      8 UNK        -0.4734 
     50 CA         21.9895  -33.2338  -39.6871 C.3       8 UNK         0.0238 
     51 CB         21.7210  -34.7511  -39.6834 C.3       8 UNK        -0.1912 
     52 C          21.5370  -32.5540  -40.9985 C.2       8 UNK         0.5038 
     53 O          20.8344  -33.1778  -41.7958 O.2       8 UNK        -0.5046 
     54 N          21.9481  -31.2944  -41.1967 N.am      9 UNK        -0.4200 
     55 CA         21.6526  -30.4483  -42.3659 C.3       9 UNK         0.0839 
     56 C          22.2178  -31.0189  -43.6994 C.2       9 UNK         0.5513 
     57 N          23.4369  -31.5404  -43.7059 N.am      9 UNK        -0.7519 
     58 O          21.5619  -30.9896  -44.7370 O.2       9 UNK        -0.4960 
     59 C59        20.1528  -30.0437  -42.4547 C.3       10 UNK        -0.0876 
     60 S60        19.6008  -29.1594  -40.9579 S.3       10 UNK        -0.2414 
     61 C61        17.8536  -29.6560  -40.8680 C.3       10 UNK         0.0169 
     62 H62        19.1182  -34.5630  -45.7002 H         1 UNK         0.0903 
     63 H63        20.4393  -33.4920  -46.1808 H         1 UNK         0.0903 
     64 H64        20.1162  -33.7764  -44.4716 H         1 UNK         0.0903 
     65 H65        19.6975  -31.4924  -46.8707 H         1 UNK         0.3096 
     66 H66        17.8369  -29.9944  -45.2674 H         1 UNK         0.1121 
     67 H67        16.9999  -30.3516  -48.1769 H         1 UNK         0.0849 
     68 H68        16.3900  -31.4111  -46.9448 H         1 UNK         0.0849 
     69 H69        13.8726  -29.6165  -44.9404 H         1 UNK         0.0865 
     70 H70        15.1138  -30.8412  -44.9224 H         1 UNK         0.0865 
     71 H71        16.5560  -30.7220  -43.0274 H         1 UNK         0.1346 
     72 H72        17.2743  -27.0104  -41.0090 H         1 UNK         0.1412 
     73 H73        14.8684  -27.0893  -44.5584 H         1 UNK         0.1426 
     74 H74        15.3284  -24.9929  -43.5579 H         1 UNK         0.0716 
     75 H75        15.2174  -25.1640  -41.8233 H         1 UNK         0.0716 
     76 H76        17.6271  -25.4123  -44.6764 H         1 UNK         0.0695 
     77 H77        18.4870  -23.9058  -44.5875 H         1 UNK         0.0695 
     78 H78        19.3757  -26.4092  -43.0596 H         1 UNK         0.0983 
     79 H79        19.4762  -26.1552  -45.8229 H         1 UNK         0.3095 
     80 H80        20.8776  -27.2277  -47.2524 H         1 UNK         0.0454 
     81 H81        22.9841  -29.0635  -45.9791 H         1 UNK         0.0851 
     82 H82        22.6730  -28.8909  -47.7035 H         1 UNK         0.0851 
     83 H83        23.2944  -27.5322  -46.7791 H         1 UNK         0.0851 
     84 H84        20.6305  -29.8608  -45.8692 H         1 UNK         0.2976 
     85 H85        21.2855  -26.2794  -41.9780 H         1 UNK         0.3116 
     86 H86        22.4234  -23.8576  -41.0879 H         1 UNK         0.0646 
     87 H87        24.7256  -24.2478  -42.1259 H         1 UNK         0.0847 
     88 H88        23.5520  -23.8209  -43.3496 H         1 UNK         0.0847 
     89 H89        24.0394  -25.5014  -43.1503 H         1 UNK         0.0847 
     90 H90        24.4566  -24.5527  -39.7674 H         1 UNK         0.3040 
     91 H91        23.8421  -26.9014  -38.1804 H         1 UNK         0.1015 
     92 H92        26.1757  -24.9243  -38.0034 H         1 UNK         0.0786 
     93 H93        25.6960  -26.0767  -36.7647 H         1 UNK         0.0786 
     94 H94        24.6261  -24.7513  -37.1774 H         1 UNK         0.0786 
     95 H95        24.4948  -27.5959  -40.8827 H         1 UNK         0.3172 
     96 H96        27.1899  -28.7942  -40.9577 H         1 UNK         0.0595 
     97 H97        26.4832  -29.4361  -43.2674 H         1 UNK         0.0839 
     98 H98        26.2647  -27.7147  -42.9997 H         1 UNK         0.0839 
     99 H99        24.8725  -28.7958  -42.9736 H         1 UNK         0.0839 
    100 H100       26.2978  -29.8695  -38.8496 H         1 UNK         0.2998 
    101 H101       25.6785  -31.6434  -37.6515 H         1 UNK         0.0822 
    102 H102       27.2963  -32.9293  -39.0265 H         1 UNK         0.0787 
    103 H103       25.9328  -33.9390  -38.5915 H         1 UNK         0.0787 
    104 H104       26.0618  -33.2864  -40.2242 H         1 UNK         0.0787 
    105 H105       24.0590  -33.6795  -39.7914 H         1 UNK         0.3055 
    106 H106       21.3923  -32.7917  -38.8861 H         1 UNK         0.1106 
    107 H107       20.6593  -34.9619  -39.8186 H         1 UNK         0.0828 
    108 H108       22.2590  -35.2580  -40.4854 H         1 UNK         0.0828 
    109 H109       22.0194  -35.2052  -38.7383 H         1 UNK         0.0828 
    110 H110       22.5266  -30.8720  -40.4830 H         1 UNK         0.2931 
    111 H111       22.2156  -29.5278  -42.2050 H         1 UNK         0.0412 
    112 H112       23.8087  -31.9146  -44.5630 H         1 UNK         0.3472 
    113 H113       24.0175  -31.5081  -42.8700 H         1 UNK         0.3472 
    114 H114       19.9777  -29.3863  -43.3066 H         1 UNK         0.0970 
    115 H115       19.5303  -30.9245  -42.6209 H         1 UNK         0.0970 
    116 H116       17.7737  -30.7398  -40.9666 H         1 UNK         0.0612 
    117 H117       17.4703  -29.4087  -39.8771 H         1 UNK         0.0612 
@<TRIPOS>BOND
     1    1    2 1    
     2    1   62 1    
     3    1   63 1    
     4    1   64 1    
     5    2    3 2    
     6    2    4 am   BACKBONE|DICT|INTERRES
     7    4    5 1    
     8    4   65 1    
     9    5    6 1    
    10    5   25 1    
    11    5   66 1    
    12    6    7 1    
    13    6   67 1    
    14    6   68 1    
    15    7    8 1    
    16    8    9 1    
    17    8   69 1    
    18    8   70 1    
    19    9   10 ar   
    20    9   14 ar   
    21   10   11 ar   
    22   10   71 1    
    23   11   12 ar   
    24   11   61 1    
    25   12   13 ar   
    26   12   72 1    
    27   13   14 ar   
    28   13   15 1    
    29   14   73 1    
    30   15   16 1    
    31   15   74 1    
    32   15   75 1    
    33   16   17 1    
    34   17   18 1    
    35   17   76 1    
    36   17   77 1    
    37   18   19 1    
    38   18   27 1    
    39   18   78 1    
    40   19   20 am   BACKBONE|DICT|INTERRES
    41   19   79 1    
    42   20   21 2    
    43   20   22 1    
    44   22   23 1    
    45   22   24 1    
    46   22   80 1    
    47   23   81 1    
    48   23   82 1    
    49   23   83 1    
    50   24   25 am   BACKBONE|DICT|INTERRES
    51   24   84 1    
    52   25   26 2    
    53   27   28 2    
    54   27   29 am   BACKBONE|DICT|INTERRES
    55   29   30 1    
    56   29   85 1    
    57   30   31 1    
    58   30   32 1    
    59   30   86 1    
    60   31   87 1    
    61   31   88 1    
    62   31   89 1    
    63   32   33 2    
    64   32   34 am   BACKBONE|DICT|INTERRES
    65   34   35 1    
    66   34   90 1    
    67   35   36 1    
    68   35   37 1    
    69   35   91 1    
    70   36   92 1    
    71   36   93 1    
    72   36   94 1    
    73   37   38 2    
    74   37   39 am   BACKBONE|DICT|INTERRES
    75   39   40 1    
    76   39   95 1    
    77   40   41 1    
    78   40   42 1    
    79   40   96 1    
    80   41   97 1    
    81   41   98 1    
    82   41   99 1    
    83   42   43 2    
    84   42   44 am   BACKBONE|DICT|INTERRES
    85   44   45 1    
    86   44  100 1    
    87   45   46 1    
    88   45   47 1    
    89   45  101 1    
    90   46  102 1    
    91   46  103 1    
    92   46  104 1    
    93   47   48 2    
    94   47   49 am   BACKBONE|DICT|INTERRES
    95   49   50 1    
    96   49  105 1    
    97   50   51 1    
    98   50   52 1    
    99   50  106 1    
   100   51  107 1    
   101   51  108 1    
   102   51  109 1    
   103   52   53 2    
   104   52   54 am   BACKBONE|DICT|INTERRES
   105   54   55 1    
   106   54  110 1    
   107   55   56 1    
   108   55   59 1    
   109   55  111 1    
   110   56   57 am   BACKBONE|DICT|INTERRES
   111   56   58 2    
   112   57  112 1    
   113   57  113 1    
   114   59   60 1    
   115   59  114 1    
   116   59  115 1    
   117   60   61 1    
   118   61  116 1    
   119   61  117 1    
@<TRIPOS>SUBSTRUCTURE
     1 UNK         1 GROUP             0       ****    0 ROOT    
