@<TRIPOS>MOLECULE
3R8
117   119    1
SMALL
USER_CHARGES


@<TRIPOS>ATOM
      1 CA         15.5223  -25.0646  -44.1074 C.3       0 UNK        -0.2013 
      2 C          16.2485  -25.4535  -45.3860 C.2       0 UNK         0.4866 
      3 O          16.5335  -24.5867  -46.2117 O.2       0 UNK        -0.5176 
      4 N          16.5372  -26.7506  -45.5587 N.am      1 UNK        -0.4884 
      5 CA         17.1674  -27.3327  -46.7540 C.3       1 UNK         0.0853 
      6 C6         17.1033  -28.8850  -46.7623 C.3       10 UNK        -0.0849 
      7 S7         15.4642  -29.5282  -46.2736 S.3       10 UNK        -0.2776 
      8 C8         15.8937  -30.8330  -45.0715 C.3       10 UNK         0.0316 
      9 C9         16.6873  -30.3497  -43.8573 C.ar      10 UNK        -0.0863 
     10 C10        17.8834  -30.9930  -43.5197 C.ar      10 UNK        -0.1009 
     11 C11        18.5693  -30.6506  -42.3522 C.ar      10 UNK        -0.0712 
     12 C12        18.0651  -29.6431  -41.5296 C.ar      10 UNK        -0.0894 
     13 C13        16.8944  -28.9562  -41.8685 C.ar      10 UNK        -0.0745 
     14 C14        16.2021  -29.3280  -43.0293 C.ar      10 UNK        -0.0972 
     15 C15        16.3249  -27.8693  -40.9545 C.3       10 UNK         0.0209 
     16 S16        17.5793  -26.8819  -40.0551 S.3       10 UNK        -0.2568 
     17 C17        18.3235  -25.8791  -41.3836 C.3       10 UNK        -0.0983 
     18 CA         19.7149  -26.3927  -41.8408 C.3       3 UNK         0.0876 
     19 N          19.9183  -26.1223  -43.2697 N.am      3 UNK        -0.4424 
     20 C          20.9316  -26.5662  -44.0291 C.2       2 UNK         0.4918 
     21 O          21.9558  -27.0735  -43.5767 O.2       2 UNK        -0.4875 
     22 CA         20.7081  -26.4803  -45.5463 C.3       2 UNK         0.0481 
     23 CB         21.7610  -27.2522  -46.3679 C.3       2 UNK        -0.1831 
     24 N          19.3631  -26.9874  -45.7999 N.am      2 UNK        -0.4498 
     25 C          18.6227  -26.8496  -46.9033 C.2       1 UNK         0.5027 
     26 O          19.0155  -26.3465  -47.9565 O.2       1 UNK        -0.4969 
     27 C          20.8622  -25.9086  -40.9258 C.2       3 UNK         0.5005 
     28 O          21.0867  -26.4984  -39.8681 O.2       3 UNK        -0.5279 
     29 N          21.6193  -24.8968  -41.3770 N.am      4 UNK        -0.4463 
     30 CA         22.8473  -24.4037  -40.7428 C.3       4 UNK         0.0283 
     31 CB         23.3438  -23.1646  -41.5049 C.3       4 UNK        -0.1875 
     32 C          23.9732  -25.4540  -40.6364 C.2       4 UNK         0.4949 
     33 O          24.8494  -25.3032  -39.7852 O.2       4 UNK        -0.5039 
     34 N          23.9280  -26.5031  -41.4721 N.am      5 UNK        -0.4663 
     35 CA         24.8374  -27.6515  -41.4235 C.3       5 UNK         0.0242 
     36 CB         24.8187  -28.3517  -42.7903 C.3       5 UNK        -0.1982 
     37 C          24.5109  -28.6467  -40.2904 C.2       5 UNK         0.5017 
     38 O          25.3112  -29.5552  -40.0547 O.2       5 UNK        -0.5012 
     39 N          23.3608  -28.4682  -39.6181 N.am      6 UNK        -0.4439 
     40 CA         22.8455  -29.1642  -38.4300 C.3       6 UNK         0.0297 
     41 CB         23.7614  -28.9306  -37.2128 C.3       6 UNK        -0.2006 
     42 C          22.5426  -30.6618  -38.6121 C.2       6 UNK         0.4892 
     43 O          21.4333  -31.0945  -38.2976 O.2       6 UNK        -0.5089 
     44 N          23.5320  -31.4194  -39.0901 N.am      7 UNK        -0.4243 
     45 CA         23.4713  -32.8612  -39.3232 C.3       7 UNK         0.0196 
     46 CB         24.1399  -33.6013  -38.1530 C.3       7 UNK        -0.2007 
     47 C          24.1174  -33.2552  -40.6575 C.2       7 UNK         0.5020 
     48 O          23.6988  -34.2524  -41.2456 O.2       7 UNK        -0.5147 
     49 N          25.0933  -32.4726  -41.1488 N.am      8 UNK        -0.4734 
     50 CA         25.7658  -32.7150  -42.4346 C.3       8 UNK         0.0238 
     51 CB         27.0624  -31.8915  -42.5020 C.3       8 UNK        -0.1912 
     52 C          24.8638  -32.4722  -43.6624 C.2       8 UNK         0.5038 
     53 O          25.1897  -32.9375  -44.7548 O.2       8 UNK        -0.5046 
     54 N          23.7325  -31.7912  -43.4472 N.am      9 UNK        -0.4200 
     55 CA         22.5827  -31.7037  -44.3571 C.3       9 UNK         0.0839 
     56 C          21.8039  -33.0386  -44.5542 C.2       9 UNK         0.5513 
     57 N          22.0169  -34.0727  -43.7474 N.am      9 UNK        -0.7519 
     58 O          20.9878  -33.1362  -45.4665 O.2       9 UNK        -0.4960 
     59 C59        21.6295  -30.5398  -43.9614 C.3       10 UNK        -0.0876 
     60 S60        21.3231  -30.3925  -42.1637 S.3       10 UNK        -0.2414 
     61 C61        19.8265  -31.3982  -41.9381 C.3       10 UNK         0.0169 
     62 H62        15.2822  -25.9322  -43.4949 H         1 UNK         0.0903 
     63 H63        16.1341  -24.3835  -43.5167 H         1 UNK         0.0903 
     64 H64        14.5888  -24.5571  -44.3491 H         1 UNK         0.0903 
     65 H65        16.2406  -27.4251  -44.8680 H         1 UNK         0.3096 
     66 H66        16.6126  -26.9684  -47.6218 H         1 UNK         0.1121 
     67 H67        17.8599  -29.3132  -46.1027 H         1 UNK         0.0849 
     68 H68        17.3349  -29.2628  -47.7599 H         1 UNK         0.0849 
     69 H69        14.9707  -31.2946  -44.7180 H         1 UNK         0.0865 
     70 H70        16.4372  -31.6178  -45.6003 H         1 UNK         0.0865 
     71 H71        18.2633  -31.7909  -44.1439 H         1 UNK         0.1346 
     72 H72        18.5924  -29.4030  -40.6166 H         1 UNK         0.1412 
     73 H73        15.2657  -28.8453  -43.2745 H         1 UNK         0.1426 
     74 H74        15.6841  -28.3541  -40.2171 H         1 UNK         0.0716 
     75 H75        15.6811  -27.1927  -41.5166 H         1 UNK         0.0716 
     76 H76        18.3731  -24.8382  -41.0578 H         1 UNK         0.0695 
     77 H77        17.6239  -25.8869  -42.2193 H         1 UNK         0.0695 
     78 H78        19.7237  -27.4808  -41.7603 H         1 UNK         0.0983 
     79 H79        19.1587  -25.6495  -43.7364 H         1 UNK         0.3095 
     80 H80        20.7473  -25.4251  -45.8224 H         1 UNK         0.0454 
     81 H81        21.6325  -27.0840  -47.4368 H         1 UNK         0.0851 
     82 H82        21.7020  -28.3257  -46.1928 H         1 UNK         0.0851 
     83 H83        22.7720  -26.9312  -46.1137 H         1 UNK         0.0851 
     84 H84        18.9272  -27.4374  -45.0062 H         1 UNK         0.2976 
     85 H85        21.3717  -24.4850  -42.2651 H         1 UNK         0.3116 
     86 H86        22.5917  -24.1009  -39.7253 H         1 UNK         0.0646 
     87 H87        23.5957  -23.4010  -42.5395 H         1 UNK         0.0847 
     88 H88        22.5939  -22.3734  -41.5119 H         1 UNK         0.0847 
     89 H89        24.2400  -22.7529  -41.0384 H         1 UNK         0.0847 
     90 H90        23.1780  -26.5596  -42.1570 H         1 UNK         0.3040 
     91 H91        25.8496  -27.2820  -41.2449 H         1 UNK         0.1015 
     92 H92        25.5888  -29.1169  -42.8522 H         1 UNK         0.0786 
     93 H93        24.9996  -27.6482  -43.6032 H         1 UNK         0.0786 
     94 H94        23.8624  -28.8370  -42.9757 H         1 UNK         0.0786 
     95 H95        22.7589  -27.7144  -39.9355 H         1 UNK         0.3172 
     96 H96        21.8910  -28.6824  -38.2112 H         1 UNK         0.0595 
     97 H97        24.7537  -29.3589  -37.3573 H         1 UNK         0.0839 
     98 H98        23.3399  -29.3851  -36.3152 H         1 UNK         0.0839 
     99 H99        23.8835  -27.8666  -37.0098 H         1 UNK         0.0839 
    100 H100       24.3846  -30.9297  -39.3492 H         1 UNK         0.2998 
    101 H101       22.4270  -33.1765  -39.3807 H         1 UNK         0.0822 
    102 H102       24.1086  -34.6813  -38.3040 H         1 UNK         0.0787 
    103 H103       23.6322  -33.3911  -37.2115 H         1 UNK         0.0787 
    104 H104       25.1865  -33.3155  -38.0407 H         1 UNK         0.0787 
    105 H105       25.3908  -31.6518  -40.6367 H         1 UNK         0.3055 
    106 H106       26.0453  -33.7707  -42.4717 H         1 UNK         0.1106 
    107 H107       26.8864  -30.8316  -42.3302 H         1 UNK         0.0828 
    108 H108       27.7790  -32.2301  -41.7535 H         1 UNK         0.0828 
    109 H109       27.5446  -31.9921  -43.4754 H         1 UNK         0.0828 
    110 H110       23.5563  -31.4555  -42.5120 H         1 UNK         0.2931 
    111 H111       22.9852  -31.4613  -45.3425 H         1 UNK         0.0412 
    112 H112       22.6709  -34.0175  -42.9748 H         1 UNK         0.3472 
    113 H113       21.5031  -34.9254  -43.9021 H         1 UNK         0.3472 
    114 H114       22.0868  -29.6034  -44.2753 H         1 UNK         0.0970 
    115 H115       20.6822  -30.5832  -44.5019 H         1 UNK         0.0970 
    116 H116       19.9202  -32.3393  -42.4798 H         1 UNK         0.0612 
    117 H117       19.7505  -31.6654  -40.8829 H         1 UNK         0.0612 
@<TRIPOS>BOND
     1    1    2 1    
     2    1   62 1    
     3    1   63 1    
     4    1   64 1    
     5    2    3 2    
     6    2    4 am   BACKBONE|DICT|INTERRES
     7    4    5 1    
     8    4   65 1    
     9    5    6 1    
    10    5   25 1    
    11    5   66 1    
    12    6    7 1    
    13    6   67 1    
    14    6   68 1    
    15    7    8 1    
    16    8    9 1    
    17    8   69 1    
    18    8   70 1    
    19    9   10 ar   
    20    9   14 ar   
    21   10   11 ar   
    22   10   71 1    
    23   11   12 ar   
    24   11   61 1    
    25   12   13 ar   
    26   12   72 1    
    27   13   14 ar   
    28   13   15 1    
    29   14   73 1    
    30   15   16 1    
    31   15   74 1    
    32   15   75 1    
    33   16   17 1    
    34   17   18 1    
    35   17   76 1    
    36   17   77 1    
    37   18   19 1    
    38   18   27 1    
    39   18   78 1    
    40   19   20 am   BACKBONE|DICT|INTERRES
    41   19   79 1    
    42   20   21 2    
    43   20   22 1    
    44   22   23 1    
    45   22   24 1    
    46   22   80 1    
    47   23   81 1    
    48   23   82 1    
    49   23   83 1    
    50   24   25 am   BACKBONE|DICT|INTERRES
    51   24   84 1    
    52   25   26 2    
    53   27   28 2    
    54   27   29 am   BACKBONE|DICT|INTERRES
    55   29   30 1    
    56   29   85 1    
    57   30   31 1    
    58   30   32 1    
    59   30   86 1    
    60   31   87 1    
    61   31   88 1    
    62   31   89 1    
    63   32   33 2    
    64   32   34 am   BACKBONE|DICT|INTERRES
    65   34   35 1    
    66   34   90 1    
    67   35   36 1    
    68   35   37 1    
    69   35   91 1    
    70   36   92 1    
    71   36   93 1    
    72   36   94 1    
    73   37   38 2    
    74   37   39 am   BACKBONE|DICT|INTERRES
    75   39   40 1    
    76   39   95 1    
    77   40   41 1    
    78   40   42 1    
    79   40   96 1    
    80   41   97 1    
    81   41   98 1    
    82   41   99 1    
    83   42   43 2    
    84   42   44 am   BACKBONE|DICT|INTERRES
    85   44   45 1    
    86   44  100 1    
    87   45   46 1    
    88   45   47 1    
    89   45  101 1    
    90   46  102 1    
    91   46  103 1    
    92   46  104 1    
    93   47   48 2    
    94   47   49 am   BACKBONE|DICT|INTERRES
    95   49   50 1    
    96   49  105 1    
    97   50   51 1    
    98   50   52 1    
    99   50  106 1    
   100   51  107 1    
   101   51  108 1    
   102   51  109 1    
   103   52   53 2    
   104   52   54 am   BACKBONE|DICT|INTERRES
   105   54   55 1    
   106   54  110 1    
   107   55   56 1    
   108   55   59 1    
   109   55  111 1    
   110   56   57 am   BACKBONE|DICT|INTERRES
   111   56   58 2    
   112   57  112 1    
   113   57  113 1    
   114   59   60 1    
   115   59  114 1    
   116   59  115 1    
   117   60   61 1    
   118   61  116 1    
   119   61  117 1    
@<TRIPOS>SUBSTRUCTURE
     1 UNK         1 GROUP             0       ****    0 ROOT    
