@<TRIPOS>MOLECULE
3R8
117   119    1
SMALL
USER_CHARGES


@<TRIPOS>ATOM
      1 CA         18.3522  -25.4677  -50.2048 C.3       0 UNK        -0.2013 
      2 C          19.1237  -25.7883  -48.9332 C.2       0 UNK         0.4866 
      3 O          20.2872  -25.4038  -48.8095 O.2       0 UNK        -0.5176 
      4 N          18.4895  -26.4974  -47.9914 N.am      1 UNK        -0.4884 
      5 CA         19.0592  -26.8560  -46.6894 C.3       1 UNK         0.0853 
      6 C6         18.1862  -27.9026  -45.9537 C.3       10 UNK        -0.0849 
      7 S7         18.3310  -29.5699  -46.6678 S.3       10 UNK        -0.2776 
      8 C8         16.9411  -30.4319  -45.8591 C.3       10 UNK         0.0316 
      9 C9         16.9451  -30.2816  -44.3408 C.ar      10 UNK        -0.0863 
     10 C10        17.8675  -30.9828  -43.5575 C.ar      10 UNK        -0.1009 
     11 C11        17.8500  -30.8698  -42.1609 C.ar      10 UNK        -0.0712 
     12 C12        16.8900  -30.0552  -41.5551 C.ar      10 UNK        -0.0894 
     13 C13        15.9994  -29.3022  -42.3284 C.ar      10 UNK        -0.0745 
     14 C14        16.0221  -29.4343  -43.7196 C.ar      10 UNK        -0.0972 
     15 C15        15.0230  -28.3318  -41.6711 C.3       10 UNK         0.0209 
     16 S16        15.8130  -27.2390  -40.4378 S.3       10 UNK        -0.2568 
     17 C17        16.9748  -26.2408  -41.4392 C.3       10 UNK        -0.0983 
     18 CA         18.4035  -26.8491  -41.5242 C.3       3 UNK         0.0876 
     19 N          19.2185  -26.2601  -42.5875 N.am      3 UNK        -0.4424 
     20 C          19.6829  -25.0046  -42.6698 C.2       2 UNK         0.4918 
     21 O          19.4616  -24.1245  -41.8390 O.2       2 UNK        -0.4875 
     22 CA         20.5563  -24.6785  -43.8998 C.3       2 UNK         0.0481 
     23 CB         22.0439  -24.7200  -43.5121 C.3       2 UNK        -0.1831 
     24 N          20.3311  -25.5988  -45.0212 N.am      2 UNK        -0.4498 
     25 C          19.2286  -25.6192  -45.7847 C.2       1 UNK         0.5027 
     26 O          18.3343  -24.7719  -45.7275 O.2       1 UNK        -0.4969 
     27 C          19.1819  -26.9069  -40.1920 C.2       3 UNK         0.5005 
     28 O          18.7951  -26.2810  -39.2027 O.2       3 UNK        -0.5279 
     29 N          20.2886  -27.6600  -40.2078 N.am      4 UNK        -0.4463 
     30 CA         21.1415  -27.9442  -39.0607 C.3       4 UNK         0.0283 
     31 CB         22.0531  -26.7395  -38.7583 C.3       4 UNK        -0.1875 
     32 C          21.9597  -29.2079  -39.3510 C.2       4 UNK         0.4949 
     33 O          22.1048  -29.6039  -40.5146 O.2       4 UNK        -0.5039 
     34 N          22.4927  -29.8101  -38.2819 N.am      5 UNK        -0.4663 
     35 CA         23.4192  -30.9406  -38.3438 C.3       5 UNK         0.0242 
     36 CB         23.6339  -31.5021  -36.9299 C.3       5 UNK        -0.1982 
     37 C          24.7593  -30.5218  -38.9693 C.2       5 UNK         0.5017 
     38 O          25.2168  -29.4011  -38.7328 O.2       5 UNK        -0.5012 
     39 N          25.3429  -31.4169  -39.7748 N.am      6 UNK        -0.4439 
     40 CA         26.5620  -31.2767  -40.5851 C.3       6 UNK         0.0297 
     41 CB         27.7976  -30.9709  -39.7164 C.3       6 UNK        -0.2006 
     42 C          26.4381  -30.2785  -41.7525 C.2       6 UNK         0.4892 
     43 O          26.9332  -30.5720  -42.8408 O.2       6 UNK        -0.5089 
     44 N          25.7789  -29.1355  -41.5219 N.am      7 UNK        -0.4243 
     45 CA         25.4959  -28.1030  -42.5202 C.3       7 UNK         0.0196 
     46 CB         24.9792  -26.8400  -41.8157 C.3       7 UNK        -0.2007 
     47 C          24.4936  -28.5680  -43.5888 C.2       7 UNK         0.5020 
     48 O          24.6646  -28.2254  -44.7589 O.2       7 UNK        -0.5147 
     49 N          23.4790  -29.3375  -43.1730 N.am      8 UNK        -0.4734 
     50 CA         22.4932  -29.9547  -44.0596 C.3       8 UNK         0.0238 
     51 CB         21.1259  -29.2757  -43.8821 C.3       8 UNK        -0.1912 
     52 C          22.4130  -31.4641  -43.8084 C.2       8 UNK         0.5038 
     53 O          22.6068  -32.2368  -44.7477 O.2       8 UNK        -0.5046 
     54 N          22.1415  -31.8583  -42.5574 N.am      9 UNK        -0.4200 
     55 CA         22.0357  -33.2656  -42.1471 C.3       9 UNK         0.0839 
     56 C          23.4196  -33.7807  -41.6853 C.2       9 UNK         0.5513 
     57 N          24.1823  -34.4056  -42.5699 N.am      9 UNK        -0.7519 
     58 O          23.8047  -33.6179  -40.5305 O.2       9 UNK        -0.4960 
     59 C59        20.9345  -33.4756  -41.0742 C.3       10 UNK        -0.0876 
     60 S60        19.2657  -33.2602  -41.7803 S.3       10 UNK        -0.2414 
     61 C61        18.9090  -31.5436  -41.2946 C.3       10 UNK         0.0169 
     62 H62        18.2766  -24.3885  -50.3353 H         1 UNK         0.0903 
     63 H63        18.8684  -25.8806  -51.0711 H         1 UNK         0.0903 
     64 H64        17.3428  -25.8783  -50.1844 H         1 UNK         0.0903 
     65 H65        17.5320  -26.7811  -48.1426 H         1 UNK         0.3096 
     66 H66        20.0483  -27.2852  -46.8679 H         1 UNK         0.1121 
     67 H67        18.4761  -27.9911  -44.9056 H         1 UNK         0.0849 
     68 H68        17.1379  -27.5966  -45.9499 H         1 UNK         0.0849 
     69 H69        16.0043  -30.0610  -46.2781 H         1 UNK         0.0865 
     70 H70        16.9859  -31.4912  -46.1161 H         1 UNK         0.0865 
     71 H71        18.6071  -31.6075  -44.0394 H         1 UNK         0.1346 
     72 H72        16.8747  -29.9548  -40.4782 H         1 UNK         0.1412 
     73 H73        15.3234  -28.8701  -44.3225 H         1 UNK         0.1426 
     74 H74        14.2400  -28.9081  -41.1770 H         1 UNK         0.0716 
     75 H75        14.5250  -27.7120  -42.4185 H         1 UNK         0.0716 
     76 H76        17.0124  -25.2327  -41.0230 H         1 UNK         0.0695 
     77 H77        16.5563  -26.1342  -42.4413 H         1 UNK         0.0695 
     78 H78        18.2905  -27.8839  -41.8349 H         1 UNK         0.0983 
     79 H79        19.4765  -26.8881  -43.3301 H         1 UNK         0.3095 
     80 H80        20.3121  -23.6654  -44.2263 H         1 UNK         0.0454 
     81 H81        22.3490  -25.7136  -43.1813 H         1 UNK         0.0851 
     82 H82        22.2543  -24.0274  -42.6958 H         1 UNK         0.0851 
     83 H83        22.6817  -24.4334  -44.3485 H         1 UNK         0.0851 
     84 H84        21.0484  -26.2915  -45.1812 H         1 UNK         0.2976 
     85 H85        20.5580  -28.1616  -41.0435 H         1 UNK         0.3116 
     86 H86        20.5094  -28.1477  -38.1935 H         1 UNK         0.0646 
     87 H87        22.6242  -26.4350  -39.6337 H         1 UNK         0.0847 
     88 H88        22.7665  -26.9671  -37.9652 H         1 UNK         0.0847 
     89 H89        21.4729  -25.8777  -38.4288 H         1 UNK         0.0847 
     90 H90        22.3478  -29.3989  -37.3711 H         1 UNK         0.3040 
     91 H91        22.9602  -31.7143  -38.9610 H         1 UNK         0.1015 
     92 H92        22.6935  -31.8265  -36.4839 H         1 UNK         0.0786 
     93 H93        24.0853  -30.7635  -36.2659 H         1 UNK         0.0786 
     94 H94        24.2963  -32.3688  -36.9519 H         1 UNK         0.0786 
     95 H95        24.8413  -32.2921  -39.9303 H         1 UNK         0.3172 
     96 H96        26.7175  -32.2588  -41.0349 H         1 UNK         0.0595 
     97 H97        27.7405  -29.9865  -39.2513 H         1 UNK         0.0839 
     98 H98        28.7072  -30.9892  -40.3181 H         1 UNK         0.0839 
     99 H99        27.9185  -31.7100  -38.9245 H         1 UNK         0.0839 
    100 H100       25.4467  -28.9764  -40.5746 H         1 UNK         0.2998 
    101 H101       26.4334  -27.8576  -43.0237 H         1 UNK         0.0822 
    102 H102       24.0240  -27.0229  -41.3251 H         1 UNK         0.0787 
    103 H103       25.6835  -26.4854  -41.0629 H         1 UNK         0.0787 
    104 H104       24.8315  -26.0286  -42.5296 H         1 UNK         0.0787 
    105 H105       23.3956  -29.5438  -42.1841 H         1 UNK         0.3055 
    106 H106       22.7925  -29.8305  -45.1031 H         1 UNK         0.1106 
    107 H107       20.7605  -29.3437  -42.8591 H         1 UNK         0.0828 
    108 H108       21.1813  -28.2233  -44.1514 H         1 UNK         0.0828 
    109 H109       20.3807  -29.7412  -44.5266 H         1 UNK         0.0828 
    110 H110       22.0355  -31.1631  -41.8276 H         1 UNK         0.2931 
    111 H111       21.7429  -33.8689  -43.0096 H         1 UNK         0.0412 
    112 H112       23.8782  -34.5114  -43.5262 H         1 UNK         0.3472 
    113 H113       25.0838  -34.7564  -42.2869 H         1 UNK         0.3472 
    114 H114       20.9845  -34.4897  -40.6731 H         1 UNK         0.0970 
    115 H115       21.0768  -32.8084  -40.2222 H         1 UNK         0.0970 
    116 H116       19.8184  -30.9482  -41.3551 H         1 UNK         0.0612 
    117 H117       18.6110  -31.5421  -40.2450 H         1 UNK         0.0612 
@<TRIPOS>BOND
     1    1    2 1    
     2    1   62 1    
     3    1   63 1    
     4    1   64 1    
     5    2    3 2    
     6    2    4 am   BACKBONE|DICT|INTERRES
     7    4    5 1    
     8    4   65 1    
     9    5    6 1    
    10    5   25 1    
    11    5   66 1    
    12    6    7 1    
    13    6   67 1    
    14    6   68 1    
    15    7    8 1    
    16    8    9 1    
    17    8   69 1    
    18    8   70 1    
    19    9   10 ar   
    20    9   14 ar   
    21   10   11 ar   
    22   10   71 1    
    23   11   12 ar   
    24   11   61 1    
    25   12   13 ar   
    26   12   72 1    
    27   13   14 ar   
    28   13   15 1    
    29   14   73 1    
    30   15   16 1    
    31   15   74 1    
    32   15   75 1    
    33   16   17 1    
    34   17   18 1    
    35   17   76 1    
    36   17   77 1    
    37   18   19 1    
    38   18   27 1    
    39   18   78 1    
    40   19   20 am   BACKBONE|DICT|INTERRES
    41   19   79 1    
    42   20   21 2    
    43   20   22 1    
    44   22   23 1    
    45   22   24 1    
    46   22   80 1    
    47   23   81 1    
    48   23   82 1    
    49   23   83 1    
    50   24   25 am   BACKBONE|DICT|INTERRES
    51   24   84 1    
    52   25   26 2    
    53   27   28 2    
    54   27   29 am   BACKBONE|DICT|INTERRES
    55   29   30 1    
    56   29   85 1    
    57   30   31 1    
    58   30   32 1    
    59   30   86 1    
    60   31   87 1    
    61   31   88 1    
    62   31   89 1    
    63   32   33 2    
    64   32   34 am   BACKBONE|DICT|INTERRES
    65   34   35 1    
    66   34   90 1    
    67   35   36 1    
    68   35   37 1    
    69   35   91 1    
    70   36   92 1    
    71   36   93 1    
    72   36   94 1    
    73   37   38 2    
    74   37   39 am   BACKBONE|DICT|INTERRES
    75   39   40 1    
    76   39   95 1    
    77   40   41 1    
    78   40   42 1    
    79   40   96 1    
    80   41   97 1    
    81   41   98 1    
    82   41   99 1    
    83   42   43 2    
    84   42   44 am   BACKBONE|DICT|INTERRES
    85   44   45 1    
    86   44  100 1    
    87   45   46 1    
    88   45   47 1    
    89   45  101 1    
    90   46  102 1    
    91   46  103 1    
    92   46  104 1    
    93   47   48 2    
    94   47   49 am   BACKBONE|DICT|INTERRES
    95   49   50 1    
    96   49  105 1    
    97   50   51 1    
    98   50   52 1    
    99   50  106 1    
   100   51  107 1    
   101   51  108 1    
   102   51  109 1    
   103   52   53 2    
   104   52   54 am   BACKBONE|DICT|INTERRES
   105   54   55 1    
   106   54  110 1    
   107   55   56 1    
   108   55   59 1    
   109   55  111 1    
   110   56   57 am   BACKBONE|DICT|INTERRES
   111   56   58 2    
   112   57  112 1    
   113   57  113 1    
   114   59   60 1    
   115   59  114 1    
   116   59  115 1    
   117   60   61 1    
   118   61  116 1    
   119   61  117 1    
@<TRIPOS>SUBSTRUCTURE
     1 UNK         1 GROUP             0       ****    0 ROOT    
