@<TRIPOS>MOLECULE
3R8
117   119    1
SMALL
USER_CHARGES


@<TRIPOS>ATOM
      1 CA         19.2210  -27.8451  -41.8650 C.3       0 UNK        -0.2013 
      2 C          18.1896  -26.8709  -42.4114 C.2       0 UNK         0.4866 
      3 O          17.7184  -26.0070  -41.6725 O.2       0 UNK        -0.5176 
      4 N          17.8385  -27.0075  -43.6971 N.am      1 UNK        -0.4884 
      5 CA         16.9279  -26.1177  -44.4305 C.3       1 UNK         0.0853 
      6 C6         16.2162  -26.8597  -45.5948 C.3       10 UNK        -0.0849 
      7 S7         15.2544  -28.3028  -45.0338 S.3       10 UNK        -0.2776 
      8 C8         16.0931  -29.6637  -45.9088 C.3       10 UNK         0.0316 
      9 C9         17.4108  -30.0560  -45.2524 C.ar      10 UNK        -0.0863 
     10 C10        17.3959  -30.8248  -44.0865 C.ar      10 UNK        -0.1009 
     11 C11        18.5873  -31.2786  -43.5164 C.ar      10 UNK        -0.0712 
     12 C12        19.8069  -30.9351  -44.1091 C.ar      10 UNK        -0.0894 
     13 C13        19.8429  -30.1489  -45.2674 C.ar      10 UNK        -0.0745 
     14 C14        18.6366  -29.7173  -45.8368 C.ar      10 UNK        -0.0972 
     15 C15        21.1864  -29.8693  -45.9417 C.3       10 UNK         0.0209 
     16 S16        21.3582  -28.1891  -46.6333 S.3       10 UNK        -0.2568 
     17 C17        21.7674  -27.2160  -45.1477 C.3       10 UNK        -0.0983 
     18 CA         21.8261  -25.6902  -45.4306 C.3       3 UNK         0.0876 
     19 N          20.5765  -25.2183  -46.0264 N.am      3 UNK        -0.4424 
     20 C          20.2896  -23.9808  -46.4525 C.2       2 UNK         0.4918 
     21 O          21.1103  -23.0667  -46.5263 O.2       2 UNK        -0.4875 
     22 CA         18.8123  -23.7170  -46.8163 C.3       2 UNK         0.0481 
     23 CB         18.6264  -23.7175  -48.3418 C.3       2 UNK        -0.1831 
     24 N          17.8866  -24.6895  -46.2132 N.am      2 UNK        -0.4498 
     25 C          17.7161  -24.8695  -44.8920 C.2       1 UNK         0.5027 
     26 O          18.2330  -24.1296  -44.0529 O.2       1 UNK        -0.4969 
     27 C          22.1879  -24.9442  -44.1278 C.2       3 UNK         0.5005 
     28 O          23.3729  -24.8394  -43.8124 O.2       3 UNK        -0.5279 
     29 N          21.1729  -24.4812  -43.3766 N.am      4 UNK        -0.4463 
     30 CA         21.2142  -23.8710  -42.0381 C.3       4 UNK         0.0283 
     31 CB         22.0838  -22.5993  -42.0046 C.3       4 UNK        -0.1875 
     32 C          21.6050  -24.8527  -40.9171 C.2       4 UNK         0.4949 
     33 O          20.9492  -24.8673  -39.8759 O.2       4 UNK        -0.5039 
     34 N          22.6288  -25.6769  -41.1543 N.am      5 UNK        -0.4663 
     35 CA         23.0671  -26.7825  -40.3102 C.3       5 UNK         0.0242 
     36 CB         23.9230  -26.2563  -39.1434 C.3       5 UNK        -0.1982 
     37 C          23.8641  -27.7632  -41.1783 C.2       5 UNK         0.5017 
     38 O          24.4869  -27.3450  -42.1567 O.2       5 UNK        -0.5012 
     39 N          23.8569  -29.0412  -40.7939 N.am      6 UNK        -0.4439 
     40 CA         24.6288  -30.1149  -41.4112 C.3       6 UNK         0.0297 
     41 CB         23.9529  -30.5928  -42.7109 C.3       6 UNK        -0.2006 
     42 C          24.7319  -31.2509  -40.3923 C.2       6 UNK         0.4892 
     43 O          23.8107  -31.4222  -39.5902 O.2       6 UNK        -0.5089 
     44 N          25.8253  -32.0220  -40.4568 N.am      7 UNK        -0.4243 
     45 CA         26.1215  -33.1341  -39.5428 C.3       7 UNK         0.0196 
     46 CB         27.5447  -33.6481  -39.8147 C.3       7 UNK        -0.2007 
     47 C          25.1101  -34.2932  -39.6097 C.2       7 UNK         0.5020 
     48 O          24.9284  -34.9958  -38.6155 O.2       7 UNK        -0.5147 
     49 N          24.4635  -34.4638  -40.7701 N.am      8 UNK        -0.4734 
     50 CA         23.3849  -35.4309  -40.9871 C.3       8 UNK         0.0238 
     51 CB         23.2979  -35.7440  -42.4907 C.3       8 UNK        -0.1912 
     52 C          22.0185  -34.9487  -40.4622 C.2       8 UNK         0.5038 
     53 O          21.1038  -35.7679  -40.3613 O.2       8 UNK        -0.5046 
     54 N          21.8893  -33.6469  -40.1720 N.am      9 UNK        -0.4200 
     55 CA         20.6649  -33.0046  -39.6796 C.3       9 UNK         0.0839 
     56 C          20.5979  -32.9599  -38.1267 C.2       9 UNK         0.5513 
     57 N          19.5305  -32.4023  -37.5721 N.am      9 UNK        -0.7519 
     58 O          21.4861  -33.4275  -37.4167 O.2       9 UNK        -0.4960 
     59 C59        20.4694  -31.6116  -40.3486 C.3       10 UNK        -0.0876 
     60 S60        18.7190  -31.2802  -40.7366 S.3       10 UNK        -0.2414 
     61 C61        18.5383  -32.1931  -42.3009 C.3       10 UNK         0.0169 
     62 H62        19.3925  -28.6773  -42.5443 H         1 UNK         0.0903 
     63 H63        20.1705  -27.3384  -41.7034 H         1 UNK         0.0903 
     64 H64        18.8854  -28.2511  -40.9114 H         1 UNK         0.0903 
     65 H65        18.2075  -27.7853  -44.2269 H         1 UNK         0.3096 
     66 H66        16.1572  -25.7598  -43.7437 H         1 UNK         0.1121 
     67 H67        15.5188  -26.1893  -46.1013 H         1 UNK         0.0849 
     68 H68        16.9343  -27.1860  -46.3489 H         1 UNK         0.0849 
     69 H69        16.2406  -29.3981  -46.9569 H         1 UNK         0.0865 
     70 H70        15.4299  -30.5300  -45.9154 H         1 UNK         0.0865 
     71 H71        16.4492  -31.0983  -43.6403 H         1 UNK         0.1346 
     72 H72        20.7281  -31.3062  -43.6829 H         1 UNK         0.1412 
     73 H73        18.6517  -29.1489  -46.7568 H         1 UNK         0.1426 
     74 H74        21.3086  -30.5856  -46.7551 H         1 UNK         0.0716 
     75 H75        22.0118  -30.0494  -45.2512 H         1 UNK         0.0716 
     76 H76        22.7270  -27.5702  -44.7646 H         1 UNK         0.0695 
     77 H77        21.0270  -27.4399  -44.3772 H         1 UNK         0.0695 
     78 H78        22.6254  -25.4959  -46.1488 H         1 UNK         0.0983 
     79 H79        19.8409  -25.9057  -46.0728 H         1 UNK         0.3095 
     80 H80        18.5522  -22.7264  -46.4380 H         1 UNK         0.0454 
     81 H81        18.8610  -24.6889  -48.7787 H         1 UNK         0.0851 
     82 H82        19.2801  -22.9827  -48.8140 H         1 UNK         0.0851 
     83 H83        17.6036  -23.4612  -48.6183 H         1 UNK         0.0851 
     84 H84        17.4208  -25.3166  -46.8531 H         1 UNK         0.2976 
     85 H85        20.2324  -24.5890  -43.7425 H         1 UNK         0.3116 
     86 H86        20.1863  -23.5645  -41.8361 H         1 UNK         0.0646 
     87 H87        21.9929  -22.0952  -41.0417 H         1 UNK         0.0847 
     88 H88        21.7775  -21.8895  -42.7729 H         1 UNK         0.0847 
     89 H89        23.1413  -22.8192  -42.1523 H         1 UNK         0.0847 
     90 H90        23.1251  -25.5935  -42.0412 H         1 UNK         0.3040 
     91 H91        22.1872  -27.2972  -39.9173 H         1 UNK         0.1015 
     92 H92        23.3549  -25.5794  -38.5051 H         1 UNK         0.0786 
     93 H93        24.8019  -25.7189  -39.5020 H         1 UNK         0.0786 
     94 H94        24.2738  -27.0747  -38.5135 H         1 UNK         0.0786 
     95 H95        23.3637  -29.3254  -39.9554 H         1 UNK         0.3172 
     96 H96        25.6344  -29.7502  -41.6321 H         1 UNK         0.0595 
     97 H97        22.9409  -30.9531  -42.5309 H         1 UNK         0.0839 
     98 H98        24.5142  -31.4075  -43.1697 H         1 UNK         0.0839 
     99 H99        23.8945  -29.7906  -43.4467 H         1 UNK         0.0839 
    100 H100       26.5252  -31.8145  -41.1554 H         1 UNK         0.2998 
    101 H101       26.0893  -32.7397  -38.5247 H         1 UNK         0.0822 
    102 H102       28.2857  -32.8607  -39.6746 H         1 UNK         0.0787 
    103 H103       27.8042  -34.4586  -39.1319 H         1 UNK         0.0787 
    104 H104       27.6485  -34.0323  -40.8303 H         1 UNK         0.0787 
    105 H105       24.6932  -33.8521  -41.5398 H         1 UNK         0.3055 
    106 H106       23.6262  -36.3557  -40.4575 H         1 UNK         0.1106 
    107 H107       22.5282  -36.4909  -42.6905 H         1 UNK         0.0828 
    108 H108       23.0497  -34.8573  -43.0756 H         1 UNK         0.0828 
    109 H109       24.2389  -36.1445  -42.8683 H         1 UNK         0.0828 
    110 H110       22.7162  -33.0618  -40.1636 H         1 UNK         0.2931 
    111 H111       19.8313  -33.6420  -39.9801 H         1 UNK         0.0412 
    112 H112       18.8009  -32.0104  -38.1488 H         1 UNK         0.3472 
    113 H113       19.4576  -32.3629  -36.5673 H         1 UNK         0.3472 
    114 H114       21.0291  -31.5443  -41.2810 H         1 UNK         0.0970 
    115 H115       20.8609  -30.8072  -39.7228 H         1 UNK         0.0970 
    116 H116       19.3045  -32.9657  -42.3829 H         1 UNK         0.0612 
    117 H117       17.5860  -32.7250  -42.2764 H         1 UNK         0.0612 
@<TRIPOS>BOND
     1    1    2 1    
     2    1   62 1    
     3    1   63 1    
     4    1   64 1    
     5    2    3 2    
     6    2    4 am   BACKBONE|DICT|INTERRES
     7    4    5 1    
     8    4   65 1    
     9    5    6 1    
    10    5   25 1    
    11    5   66 1    
    12    6    7 1    
    13    6   67 1    
    14    6   68 1    
    15    7    8 1    
    16    8    9 1    
    17    8   69 1    
    18    8   70 1    
    19    9   10 ar   
    20    9   14 ar   
    21   10   11 ar   
    22   10   71 1    
    23   11   12 ar   
    24   11   61 1    
    25   12   13 ar   
    26   12   72 1    
    27   13   14 ar   
    28   13   15 1    
    29   14   73 1    
    30   15   16 1    
    31   15   74 1    
    32   15   75 1    
    33   16   17 1    
    34   17   18 1    
    35   17   76 1    
    36   17   77 1    
    37   18   19 1    
    38   18   27 1    
    39   18   78 1    
    40   19   20 am   BACKBONE|DICT|INTERRES
    41   19   79 1    
    42   20   21 2    
    43   20   22 1    
    44   22   23 1    
    45   22   24 1    
    46   22   80 1    
    47   23   81 1    
    48   23   82 1    
    49   23   83 1    
    50   24   25 am   BACKBONE|DICT|INTERRES
    51   24   84 1    
    52   25   26 2    
    53   27   28 2    
    54   27   29 am   BACKBONE|DICT|INTERRES
    55   29   30 1    
    56   29   85 1    
    57   30   31 1    
    58   30   32 1    
    59   30   86 1    
    60   31   87 1    
    61   31   88 1    
    62   31   89 1    
    63   32   33 2    
    64   32   34 am   BACKBONE|DICT|INTERRES
    65   34   35 1    
    66   34   90 1    
    67   35   36 1    
    68   35   37 1    
    69   35   91 1    
    70   36   92 1    
    71   36   93 1    
    72   36   94 1    
    73   37   38 2    
    74   37   39 am   BACKBONE|DICT|INTERRES
    75   39   40 1    
    76   39   95 1    
    77   40   41 1    
    78   40   42 1    
    79   40   96 1    
    80   41   97 1    
    81   41   98 1    
    82   41   99 1    
    83   42   43 2    
    84   42   44 am   BACKBONE|DICT|INTERRES
    85   44   45 1    
    86   44  100 1    
    87   45   46 1    
    88   45   47 1    
    89   45  101 1    
    90   46  102 1    
    91   46  103 1    
    92   46  104 1    
    93   47   48 2    
    94   47   49 am   BACKBONE|DICT|INTERRES
    95   49   50 1    
    96   49  105 1    
    97   50   51 1    
    98   50   52 1    
    99   50  106 1    
   100   51  107 1    
   101   51  108 1    
   102   51  109 1    
   103   52   53 2    
   104   52   54 am   BACKBONE|DICT|INTERRES
   105   54   55 1    
   106   54  110 1    
   107   55   56 1    
   108   55   59 1    
   109   55  111 1    
   110   56   57 am   BACKBONE|DICT|INTERRES
   111   56   58 2    
   112   57  112 1    
   113   57  113 1    
   114   59   60 1    
   115   59  114 1    
   116   59  115 1    
   117   60   61 1    
   118   61  116 1    
   119   61  117 1    
@<TRIPOS>SUBSTRUCTURE
     1 UNK         1 GROUP             0       ****    0 ROOT    
