@<TRIPOS>MOLECULE
3R8
117   119    1
SMALL
USER_CHARGES


@<TRIPOS>ATOM
      1 CA         14.5897  -22.5201  -43.4863 C.3       0 UNK        -0.2013 
      2 C          15.4704  -23.4241  -44.3352 C.2       0 UNK         0.4866 
      3 O          15.9157  -23.0159  -45.4090 O.2       0 UNK        -0.5176 
      4 N          15.7268  -24.6517  -43.8667 N.am      1 UNK        -0.4884 
      5 CA         16.5826  -25.6482  -44.5159 C.3       1 UNK         0.0853 
      6 C6         16.1911  -27.1024  -44.1259 C.3       10 UNK        -0.0849 
      7 S7         15.8489  -27.4288  -42.3504 S.3       10 UNK        -0.2776 
      8 C8         17.3755  -28.1868  -41.6870 C.3       10 UNK         0.0316 
      9 C9         17.7863  -29.4656  -42.4053 C.ar      10 UNK        -0.0863 
     10 C10        17.3432  -30.7081  -41.9470 C.ar      10 UNK        -0.1009 
     11 C11        17.7270  -31.8809  -42.6023 C.ar      10 UNK        -0.0712 
     12 C12        18.5210  -31.7988  -43.7513 C.ar      10 UNK        -0.0894 
     13 C13        18.9990  -30.5669  -44.2088 C.ar      10 UNK        -0.0745 
     14 C14        18.6421  -29.4080  -43.5087 C.ar      10 UNK        -0.0972 
     15 C15        19.8954  -30.5519  -45.4510 C.3       10 UNK         0.0209 
     16 S16        20.2563  -28.9081  -46.1680 S.3       10 UNK        -0.2568 
     17 C17        21.6550  -28.3764  -45.1284 C.3       10 UNK        -0.0983 
     18 CA         22.1026  -26.9265  -45.4386 C.3       3 UNK         0.0876 
     19 N          21.0626  -25.9461  -45.1165 N.am      3 UNK        -0.4424 
     20 C          21.0045  -24.6976  -45.5918 C.2       2 UNK         0.4918 
     21 O          21.7569  -24.2748  -46.4721 O.2       2 UNK        -0.4875 
     22 CA         19.9339  -23.7667  -44.9757 C.3       2 UNK         0.0481 
     23 CB         19.9430  -22.3604  -45.6037 C.3       2 UNK        -0.1831 
     24 N          18.5677  -24.2990  -45.0418 N.am      2 UNK        -0.4498 
     25 C          18.0769  -25.3100  -44.3133 C.2       1 UNK         0.5027 
     26 O          18.7587  -25.9335  -43.5015 O.2       1 UNK        -0.4969 
     27 C          23.3943  -26.5893  -44.6671 C.2       3 UNK         0.5005 
     28 O          23.3259  -26.0784  -43.5458 O.2       3 UNK        -0.5279 
     29 N          24.5505  -26.9233  -45.2583 N.am      4 UNK        -0.4463 
     30 CA         25.8842  -26.6720  -44.6944 C.3       4 UNK         0.0283 
     31 CB         26.9505  -26.9904  -45.7552 C.3       4 UNK        -0.1875 
     32 C          26.1818  -27.4402  -43.3920 C.2       4 UNK         0.4949 
     33 O          27.0138  -26.9878  -42.6054 O.2       4 UNK        -0.5039 
     34 N          25.4987  -28.5723  -43.1859 N.am      5 UNK        -0.4663 
     35 CA         25.5868  -29.4105  -41.9905 C.3       5 UNK         0.0242 
     36 CB         26.4273  -30.6634  -42.3042 C.3       5 UNK        -0.1982 
     37 C          24.1771  -29.7498  -41.4835 C.2       5 UNK         0.5017 
     38 O          23.9226  -30.8975  -41.1154 O.2       5 UNK        -0.5012 
     39 N          23.2794  -28.7509  -41.4834 N.am      6 UNK        -0.4439 
     40 CA         21.8574  -28.8505  -41.1191 C.3       6 UNK         0.0297 
     41 CB         21.2355  -27.4444  -41.1255 C.3       6 UNK        -0.2006 
     42 C          21.5621  -29.5452  -39.7775 C.2       6 UNK         0.4892 
     43 O          20.5738  -30.2714  -39.6826 O.2       6 UNK        -0.5089 
     44 N          22.4422  -29.3529  -38.7846 N.am      7 UNK        -0.4243 
     45 CA         22.3752  -29.9921  -37.4655 C.3       7 UNK         0.0196 
     46 CB         23.4506  -29.3759  -36.5559 C.3       7 UNK        -0.2007 
     47 C          22.5163  -31.5275  -37.4975 C.2       7 UNK         0.5020 
     48 O          22.0489  -32.1896  -36.5707 O.2       7 UNK        -0.5147 
     49 N          23.1460  -32.0631  -38.5506 N.am      8 UNK        -0.4734 
     50 CA         23.3180  -33.4956  -38.8021 C.3       8 UNK         0.0238 
     51 CB         24.8238  -33.7796  -38.9528 C.3       8 UNK        -0.1912 
     52 C          22.5452  -33.9540  -40.0540 C.2       8 UNK         0.5038 
     53 O          22.7359  -35.0922  -40.4855 O.2       8 UNK        -0.5046 
     54 N          21.7146  -33.0709  -40.6279 N.am      9 UNK        -0.4200 
     55 CA         21.0210  -33.2355  -41.9154 C.3       9 UNK         0.0839 
     56 C          21.9719  -33.3650  -43.1460 C.2       9 UNK         0.5513 
     57 N          23.1795  -32.8175  -43.1007 N.am      9 UNK        -0.7519 
     58 O          21.6084  -33.9407  -44.1685 O.2       9 UNK        -0.4960 
     59 C59        19.9067  -34.3251  -41.8802 C.3       10 UNK        -0.0876 
     60 S60        18.4976  -33.8571  -40.8183 S.3       10 UNK        -0.2414 
     61 C61        17.3034  -33.2349  -42.0510 C.3       10 UNK         0.0169 
     62 H62        13.7033  -22.2259  -44.0477 H         1 UNK         0.0903 
     63 H63        14.2633  -23.0123  -42.5703 H         1 UNK         0.0903 
     64 H64        15.1344  -21.6174  -43.2112 H         1 UNK         0.0903 
     65 H65        15.3545  -24.9366  -42.9707 H         1 UNK         0.3096 
     66 H66        16.4128  -25.5780  -45.5934 H         1 UNK         0.1121 
     67 H67        15.2615  -27.3426  -44.6442 H         1 UNK         0.0849 
     68 H68        16.9040  -27.8148  -44.5329 H         1 UNK         0.0849 
     69 H69        18.1846  -27.4626  -41.7064 H         1 UNK         0.0865 
     70 H70        17.2159  -28.4032  -40.6296 H         1 UNK         0.0865 
     71 H71        16.7147  -30.7646  -41.0687 H         1 UNK         0.1346 
     72 H72        18.8023  -32.7038  -44.2722 H         1 UNK         0.1412 
     73 H73        19.0056  -28.4440  -43.8277 H         1 UNK         0.1426 
     74 H74        20.8343  -31.0572  -45.2195 H         1 UNK         0.0716 
     75 H75        19.4135  -31.1464  -46.2286 H         1 UNK         0.0716 
     76 H76        21.3805  -28.4803  -44.0789 H         1 UNK         0.0695 
     77 H77        22.4734  -29.0780  -45.3012 H         1 UNK         0.0695 
     78 H78        22.3181  -26.8530  -46.5071 H         1 UNK         0.0983 
     79 H79        20.4000  -26.1972  -44.3890 H         1 UNK         0.3095 
     80 H80        20.1952  -23.6514  -43.9217 H         1 UNK         0.0454 
     81 H81        19.6872  -22.3907  -46.6635 H         1 UNK         0.0851 
     82 H82        19.2340  -21.6983  -45.1062 H         1 UNK         0.0851 
     83 H83        20.9274  -21.8982  -45.5179 H         1 UNK         0.0851 
     84 H84        17.9182  -23.8030  -45.6415 H         1 UNK         0.2976 
     85 H85        24.5245  -27.3502  -46.1741 H         1 UNK         0.3116 
     86 H86        25.9463  -25.6070  -44.4602 H         1 UNK         0.0646 
     87 H87        27.9523  -26.7838  -45.3757 H         1 UNK         0.0847 
     88 H88        26.8161  -26.3834  -46.6507 H         1 UNK         0.0847 
     89 H89        26.9261  -28.0399  -46.0514 H         1 UNK         0.0847 
     90 H90        24.8320  -28.8625  -43.8873 H         1 UNK         0.3040 
     91 H91        26.0767  -28.8661  -41.1801 H         1 UNK         0.1015 
     92 H92        27.4290  -30.3933  -42.6387 H         1 UNK         0.0786 
     93 H93        25.9671  -31.2728  -43.0828 H         1 UNK         0.0786 
     94 H94        26.5418  -31.2923  -41.4202 H         1 UNK         0.0786 
     95 H95        23.5870  -27.8467  -41.8190 H         1 UNK         0.3172 
     96 H96        21.3674  -29.4465  -41.8916 H         1 UNK         0.0595 
     97 H97        20.2206  -27.4608  -40.7297 H         1 UNK         0.0839 
     98 H98        21.1799  -27.0324  -42.1325 H         1 UNK         0.0839 
     99 H99        21.8055  -26.7476  -40.5101 H         1 UNK         0.0839 
    100 H100       23.2294  -28.7448  -38.9572 H         1 UNK         0.2998 
    101 H101       21.3949  -29.7677  -37.0396 H         1 UNK         0.0822 
    102 H102       23.3120  -28.2999  -36.4482 H         1 UNK         0.0787 
    103 H103       23.4090  -29.8073  -35.5547 H         1 UNK         0.0787 
    104 H104       24.4551  -29.5500  -36.9440 H         1 UNK         0.0787 
    105 H105       23.4791  -31.4496  -39.2897 H         1 UNK         0.3055 
    106 H106       22.9368  -34.0834  -37.9643 H         1 UNK         0.1106 
    107 H107       25.0130  -34.8446  -39.0936 H         1 UNK         0.0828 
    108 H108       25.2465  -33.2558  -39.8113 H         1 UNK         0.0828 
    109 H109       25.3760  -33.4698  -38.0655 H         1 UNK         0.0828 
    110 H110       21.5928  -32.1684  -40.1870 H         1 UNK         0.2931 
    111 H111       20.5360  -32.2733  -42.0694 H         1 UNK         0.0412 
    112 H112       23.7889  -32.9046  -43.8974 H         1 UNK         0.3472 
    113 H113       23.4729  -32.2827  -42.2885 H         1 UNK         0.3472 
    114 H114       20.3090  -35.2757  -41.5288 H         1 UNK         0.0970 
    115 H115       19.5188  -34.5325  -42.8779 H         1 UNK         0.0970 
    116 H116       17.1866  -33.9606  -42.8573 H         1 UNK         0.0612 
    117 H117       16.3246  -33.1491  -41.5768 H         1 UNK         0.0612 
@<TRIPOS>BOND
     1    1    2 1    
     2    1   62 1    
     3    1   63 1    
     4    1   64 1    
     5    2    3 2    
     6    2    4 am   BACKBONE|DICT|INTERRES
     7    4    5 1    
     8    4   65 1    
     9    5    6 1    
    10    5   25 1    
    11    5   66 1    
    12    6    7 1    
    13    6   67 1    
    14    6   68 1    
    15    7    8 1    
    16    8    9 1    
    17    8   69 1    
    18    8   70 1    
    19    9   10 ar   
    20    9   14 ar   
    21   10   11 ar   
    22   10   71 1    
    23   11   12 ar   
    24   11   61 1    
    25   12   13 ar   
    26   12   72 1    
    27   13   14 ar   
    28   13   15 1    
    29   14   73 1    
    30   15   16 1    
    31   15   74 1    
    32   15   75 1    
    33   16   17 1    
    34   17   18 1    
    35   17   76 1    
    36   17   77 1    
    37   18   19 1    
    38   18   27 1    
    39   18   78 1    
    40   19   20 am   BACKBONE|DICT|INTERRES
    41   19   79 1    
    42   20   21 2    
    43   20   22 1    
    44   22   23 1    
    45   22   24 1    
    46   22   80 1    
    47   23   81 1    
    48   23   82 1    
    49   23   83 1    
    50   24   25 am   BACKBONE|DICT|INTERRES
    51   24   84 1    
    52   25   26 2    
    53   27   28 2    
    54   27   29 am   BACKBONE|DICT|INTERRES
    55   29   30 1    
    56   29   85 1    
    57   30   31 1    
    58   30   32 1    
    59   30   86 1    
    60   31   87 1    
    61   31   88 1    
    62   31   89 1    
    63   32   33 2    
    64   32   34 am   BACKBONE|DICT|INTERRES
    65   34   35 1    
    66   34   90 1    
    67   35   36 1    
    68   35   37 1    
    69   35   91 1    
    70   36   92 1    
    71   36   93 1    
    72   36   94 1    
    73   37   38 2    
    74   37   39 am   BACKBONE|DICT|INTERRES
    75   39   40 1    
    76   39   95 1    
    77   40   41 1    
    78   40   42 1    
    79   40   96 1    
    80   41   97 1    
    81   41   98 1    
    82   41   99 1    
    83   42   43 2    
    84   42   44 am   BACKBONE|DICT|INTERRES
    85   44   45 1    
    86   44  100 1    
    87   45   46 1    
    88   45   47 1    
    89   45  101 1    
    90   46  102 1    
    91   46  103 1    
    92   46  104 1    
    93   47   48 2    
    94   47   49 am   BACKBONE|DICT|INTERRES
    95   49   50 1    
    96   49  105 1    
    97   50   51 1    
    98   50   52 1    
    99   50  106 1    
   100   51  107 1    
   101   51  108 1    
   102   51  109 1    
   103   52   53 2    
   104   52   54 am   BACKBONE|DICT|INTERRES
   105   54   55 1    
   106   54  110 1    
   107   55   56 1    
   108   55   59 1    
   109   55  111 1    
   110   56   57 am   BACKBONE|DICT|INTERRES
   111   56   58 2    
   112   57  112 1    
   113   57  113 1    
   114   59   60 1    
   115   59  114 1    
   116   59  115 1    
   117   60   61 1    
   118   61  116 1    
   119   61  117 1    
@<TRIPOS>SUBSTRUCTURE
     1 UNK         1 GROUP             0       ****    0 ROOT    
