@<TRIPOS>MOLECULE
3R8
117   119    1
SMALL
USER_CHARGES


@<TRIPOS>ATOM
      1 CA         16.5774  -24.8603  -49.3082 C.3       0 UNK        -0.2013 
      2 C          17.3250  -26.1085  -48.8633 C.2       0 UNK         0.4866 
      3 O          17.4695  -27.0485  -49.6457 O.2       0 UNK        -0.5176 
      4 N          17.8050  -26.1235  -47.6170 N.am      1 UNK        -0.4884 
      5 CA         18.5545  -27.2208  -47.0063 C.3       1 UNK         0.0853 
      6 C6         17.6544  -28.4141  -46.5829 C.3       10 UNK        -0.0849 
      7 S7         16.2310  -27.9718  -45.5218 S.3       10 UNK        -0.2776 
      8 C8         16.0175  -29.4876  -44.5340 C.3       10 UNK         0.0316 
      9 C9         16.9914  -29.5256  -43.3676 C.ar      10 UNK        -0.0863 
     10 C10        18.2071  -30.2087  -43.4789 C.ar      10 UNK        -0.1009 
     11 C11        19.1225  -30.1962  -42.4243 C.ar      10 UNK        -0.0712 
     12 C12        18.8021  -29.5199  -41.2453 C.ar      10 UNK        -0.0894 
     13 C13        17.5903  -28.8330  -41.1195 C.ar      10 UNK        -0.0745 
     14 C14        16.6815  -28.8530  -42.1809 C.ar      10 UNK        -0.0972 
     15 C15        17.2888  -28.0621  -39.8373 C.3       10 UNK         0.0209 
     16 S16        16.8947  -26.2859  -40.0720 S.3       10 UNK        -0.2568 
     17 C17        17.9106  -25.6971  -41.4758 C.3       10 UNK        -0.0983 
     18 CA         19.4120  -26.0734  -41.4226 C.3       3 UNK         0.0876 
     19 N          19.9471  -26.2861  -42.7668 N.am      3 UNK        -0.4424 
     20 C          21.0785  -26.9367  -43.0485 C.2       2 UNK         0.4918 
     21 O          21.7735  -27.4831  -42.1887 O.2       2 UNK        -0.4875 
     22 CA         21.5111  -26.9672  -44.5295 C.3       2 UNK         0.0481 
     23 CB         22.7516  -27.8511  -44.7508 C.3       2 UNK        -0.1831 
     24 N          20.4574  -27.3891  -45.4633 N.am      2 UNK        -0.4498 
     25 C          19.4129  -26.6486  -45.8626 C.2       1 UNK         0.5027 
     26 O          19.1395  -25.5411  -45.3874 O.2       1 UNK        -0.4969 
     27 C          20.2730  -25.0706  -40.6314 C.2       3 UNK         0.5005 
     28 O          20.9793  -24.2541  -41.2292 O.2       3 UNK        -0.5279 
     29 N          20.2604  -25.2102  -39.2983 N.am      4 UNK        -0.4463 
     30 CA         21.1500  -24.5887  -38.3037 C.3       4 UNK         0.0283 
     31 CB         21.1126  -23.0486  -38.3581 C.3       4 UNK        -0.1875 
     32 C          22.5959  -25.1224  -38.3538 C.2       4 UNK         0.4949 
     33 O          23.1742  -25.3745  -37.2970 O.2       4 UNK        -0.5039 
     34 N          23.1438  -25.3188  -39.5611 N.am      5 UNK        -0.4663 
     35 CA         24.4369  -25.9650  -39.8036 C.3       5 UNK         0.0242 
     36 CB         24.8738  -25.7101  -41.2557 C.3       5 UNK        -0.1982 
     37 C          24.4060  -27.4740  -39.5026 C.2       5 UNK         0.5017 
     38 O          25.3691  -27.9941  -38.9391 O.2       5 UNK        -0.5012 
     39 N          23.2984  -28.1332  -39.8788 N.am      6 UNK        -0.4439 
     40 CA         23.0071  -29.5633  -39.7190 C.3       6 UNK         0.0297 
     41 CB         22.9001  -29.9466  -38.2281 C.3       6 UNK        -0.2006 
     42 C          23.9693  -30.4704  -40.5133 C.2       6 UNK         0.4892 
     43 O          24.3172  -31.5582  -40.0495 O.2       6 UNK        -0.5089 
     44 N          24.3885  -30.0026  -41.6964 N.am      7 UNK        -0.4243 
     45 CA         25.2610  -30.7360  -42.6129 C.3       7 UNK         0.0196 
     46 CB         26.0266  -29.7319  -43.4893 C.3       7 UNK        -0.2007 
     47 C          24.4426  -31.6960  -43.4877 C.2       7 UNK         0.5020 
     48 O          23.3099  -31.3761  -43.8473 O.2       7 UNK        -0.5147 
     49 N          25.0399  -32.8419  -43.8392 N.am      8 UNK        -0.4734 
     50 CA         24.5336  -33.9094  -44.7212 C.3       8 UNK         0.0238 
     51 CB         24.2433  -33.3781  -46.1394 C.3       8 UNK        -0.1912 
     52 C          23.3344  -34.7151  -44.1817 C.2       8 UNK         0.5038 
     53 O          23.2891  -35.9248  -44.4098 O.2       8 UNK        -0.5046 
     54 N          22.4006  -34.0627  -43.4795 N.am      9 UNK        -0.4200 
     55 CA         21.2410  -34.6891  -42.8213 C.3       9 UNK         0.0839 
     56 C          21.5794  -35.5684  -41.5802 C.2       9 UNK         0.5513 
     57 N          22.7809  -35.4979  -41.0192 N.am      9 UNK        -0.7519 
     58 O          20.7368  -36.3399  -41.1287 O.2       9 UNK        -0.4960 
     59 C59        20.1184  -33.6608  -42.5145 C.3       10 UNK        -0.0876 
     60 S60        20.6752  -32.2810  -41.4544 S.3       10 UNK        -0.2414 
     61 C61        20.4840  -30.8563  -42.5690 C.3       10 UNK         0.0169 
     62 H62        17.0782  -24.4071  -50.1633 H         1 UNK         0.0903 
     63 H63        15.5611  -25.1181  -49.6050 H         1 UNK         0.0903 
     64 H64        16.5196  -24.1155  -48.5146 H         1 UNK         0.0903 
     65 H65        17.7044  -25.3199  -47.0079 H         1 UNK         0.3096 
     66 H66        19.2620  -27.5848  -47.7554 H         1 UNK         0.1121 
     67 H67        17.2527  -28.8929  -47.4772 H         1 UNK         0.0849 
     68 H68        18.2571  -29.1808  -46.0977 H         1 UNK         0.0849 
     69 H69        14.9944  -29.5207  -44.1562 H         1 UNK         0.0865 
     70 H70        16.1335  -30.3676  -45.1688 H         1 UNK         0.0865 
     71 H71        18.4522  -30.7309  -44.3930 H         1 UNK         0.1346 
     72 H72        19.5168  -29.5096  -40.4340 H         1 UNK         0.1412 
     73 H73        15.7467  -28.3156  -42.0943 H         1 UNK         0.1426 
     74 H74        18.1272  -28.1343  -39.1429 H         1 UNK         0.0716 
     75 H75        16.4461  -28.5387  -39.3350 H         1 UNK         0.0716 
     76 H76        17.7809  -24.6175  -41.5738 H         1 UNK         0.0695 
     77 H77        17.4527  -26.1167  -42.3735 H         1 UNK         0.0695 
     78 H78        19.5313  -27.0204  -40.9043 H         1 UNK         0.0983 
     79 H79        19.4610  -25.8374  -43.5371 H         1 UNK         0.3095 
     80 H80        21.7937  -25.9444  -44.7867 H         1 UNK         0.0454 
     81 H81        22.5546  -28.8915  -44.4905 H         1 UNK         0.0851 
     82 H82        23.5855  -27.5112  -44.1361 H         1 UNK         0.0851 
     83 H83        23.0865  -27.8205  -45.7875 H         1 UNK         0.0851 
     84 H84        20.5855  -28.3005  -45.8786 H         1 UNK         0.2976 
     85 H85        19.6302  -25.9014  -38.9141 H         1 UNK         0.3116 
     86 H86        20.7453  -24.8841  -37.3342 H         1 UNK         0.0646 
     87 H87        20.0909  -22.6736  -38.3003 H         1 UNK         0.0847 
     88 H88        21.6631  -22.6204  -37.5195 H         1 UNK         0.0847 
     89 H89        21.5641  -22.6557  -39.2692 H         1 UNK         0.0847 
     90 H90        22.5990  -25.0385  -40.3710 H         1 UNK         0.3040 
     91 H91        25.1750  -25.5109  -39.1384 H         1 UNK         0.1015 
     92 H92        24.1545  -26.1061  -41.9730 H         1 UNK         0.0786 
     93 H93        25.8352  -26.1825  -41.4629 H         1 UNK         0.0786 
     94 H94        24.9886  -24.6440  -41.4524 H         1 UNK         0.0786 
     95 H95        22.6232  -27.6245  -40.4428 H         1 UNK         0.3172 
     96 H96        22.0213  -29.7139  -40.1579 H         1 UNK         0.0595 
     97 H97        23.8650  -29.8877  -37.7238 H         1 UNK         0.0839 
     98 H98        22.5368  -30.9689  -38.1147 H         1 UNK         0.0839 
     99 H99        22.2038  -29.2957  -37.6996 H         1 UNK         0.0839 
    100 H100       24.0021  -29.1316  -42.0304 H         1 UNK         0.2998 
    101 H101       25.9860  -31.3100  -42.0313 H         1 UNK         0.0822 
    102 H102       26.7392  -30.2447  -44.1367 H         1 UNK         0.0787 
    103 H103       25.3569  -29.1628  -44.1339 H         1 UNK         0.0787 
    104 H104       26.5920  -29.0242  -42.8824 H         1 UNK         0.0787 
    105 H105       25.9654  -33.0119  -43.4680 H         1 UNK         0.3055 
    106 H106       25.3551  -34.6228  -44.8095 H         1 UNK         0.1106 
    107 H107       25.1136  -32.8754  -46.5611 H         1 UNK         0.0828 
    108 H108       23.9831  -34.1948  -46.8142 H         1 UNK         0.0828 
    109 H109       23.4107  -32.6742  -46.1514 H         1 UNK         0.0828 
    110 H110       22.5078  -33.0594  -43.3633 H         1 UNK         0.2931 
    111 H111       20.8201  -35.3851  -43.5497 H         1 UNK         0.0412 
    112 H112       22.9891  -36.0753  -40.2198 H         1 UNK         0.3472 
    113 H113       23.4692  -34.8518  -41.3703 H         1 UNK         0.3472 
    114 H114       19.7203  -33.2681  -43.4508 H         1 UNK         0.0970 
    115 H115       19.2705  -34.1476  -42.0289 H         1 UNK         0.0970 
    116 H116       20.6664  -31.1566  -43.6015 H         1 UNK         0.0612 
    117 H117       21.2566  -30.1243  -42.3365 H         1 UNK         0.0612 
@<TRIPOS>BOND
     1    1    2 1    
     2    1   62 1    
     3    1   63 1    
     4    1   64 1    
     5    2    3 2    
     6    2    4 am   BACKBONE|DICT|INTERRES
     7    4    5 1    
     8    4   65 1    
     9    5    6 1    
    10    5   25 1    
    11    5   66 1    
    12    6    7 1    
    13    6   67 1    
    14    6   68 1    
    15    7    8 1    
    16    8    9 1    
    17    8   69 1    
    18    8   70 1    
    19    9   10 ar   
    20    9   14 ar   
    21   10   11 ar   
    22   10   71 1    
    23   11   12 ar   
    24   11   61 1    
    25   12   13 ar   
    26   12   72 1    
    27   13   14 ar   
    28   13   15 1    
    29   14   73 1    
    30   15   16 1    
    31   15   74 1    
    32   15   75 1    
    33   16   17 1    
    34   17   18 1    
    35   17   76 1    
    36   17   77 1    
    37   18   19 1    
    38   18   27 1    
    39   18   78 1    
    40   19   20 am   BACKBONE|DICT|INTERRES
    41   19   79 1    
    42   20   21 2    
    43   20   22 1    
    44   22   23 1    
    45   22   24 1    
    46   22   80 1    
    47   23   81 1    
    48   23   82 1    
    49   23   83 1    
    50   24   25 am   BACKBONE|DICT|INTERRES
    51   24   84 1    
    52   25   26 2    
    53   27   28 2    
    54   27   29 am   BACKBONE|DICT|INTERRES
    55   29   30 1    
    56   29   85 1    
    57   30   31 1    
    58   30   32 1    
    59   30   86 1    
    60   31   87 1    
    61   31   88 1    
    62   31   89 1    
    63   32   33 2    
    64   32   34 am   BACKBONE|DICT|INTERRES
    65   34   35 1    
    66   34   90 1    
    67   35   36 1    
    68   35   37 1    
    69   35   91 1    
    70   36   92 1    
    71   36   93 1    
    72   36   94 1    
    73   37   38 2    
    74   37   39 am   BACKBONE|DICT|INTERRES
    75   39   40 1    
    76   39   95 1    
    77   40   41 1    
    78   40   42 1    
    79   40   96 1    
    80   41   97 1    
    81   41   98 1    
    82   41   99 1    
    83   42   43 2    
    84   42   44 am   BACKBONE|DICT|INTERRES
    85   44   45 1    
    86   44  100 1    
    87   45   46 1    
    88   45   47 1    
    89   45  101 1    
    90   46  102 1    
    91   46  103 1    
    92   46  104 1    
    93   47   48 2    
    94   47   49 am   BACKBONE|DICT|INTERRES
    95   49   50 1    
    96   49  105 1    
    97   50   51 1    
    98   50   52 1    
    99   50  106 1    
   100   51  107 1    
   101   51  108 1    
   102   51  109 1    
   103   52   53 2    
   104   52   54 am   BACKBONE|DICT|INTERRES
   105   54   55 1    
   106   54  110 1    
   107   55   56 1    
   108   55   59 1    
   109   55  111 1    
   110   56   57 am   BACKBONE|DICT|INTERRES
   111   56   58 2    
   112   57  112 1    
   113   57  113 1    
   114   59   60 1    
   115   59  114 1    
   116   59  115 1    
   117   60   61 1    
   118   61  116 1    
   119   61  117 1    
@<TRIPOS>SUBSTRUCTURE
     1 UNK         1 GROUP             0       ****    0 ROOT    
