@<TRIPOS>MOLECULE
3R8
117   119    1
SMALL
USER_CHARGES


@<TRIPOS>ATOM
      1 CA         16.2583  -22.2671  -46.3072 C.3       0 UNK        -0.2013 
      2 C          16.8586  -23.1763  -45.2453 C.2       0 UNK         0.4866 
      3 O          17.0714  -22.7339  -44.1164 O.2       0 UNK        -0.5176 
      4 N          17.1333  -24.4384  -45.6057 N.am      1 UNK        -0.4884 
      5 CA         17.6998  -25.4911  -44.7481 C.3       1 UNK         0.0853 
      6 C6         16.7451  -25.9546  -43.6112 C.3       10 UNK        -0.0849 
      7 S7         15.2391  -26.7555  -44.2613 S.3       10 UNK        -0.2776 
      8 C8         15.2434  -28.3652  -43.3835 C.3       10 UNK         0.0316 
      9 C9         16.3730  -29.3323  -43.7538 C.ar      10 UNK        -0.0863 
     10 C10        16.7234  -30.3423  -42.8488 C.ar      10 UNK        -0.1009 
     11 C11        17.7366  -31.2597  -43.1505 C.ar      10 UNK        -0.0712 
     12 C12        18.4124  -31.1604  -44.3693 C.ar      10 UNK        -0.0894 
     13 C13        18.0602  -30.1737  -45.2931 C.ar      10 UNK        -0.0745 
     14 C14        17.0374  -29.2716  -44.9846 C.ar      10 UNK        -0.0972 
     15 C15        18.7416  -30.1062  -46.6496 C.3       10 UNK         0.0209 
     16 S16        19.7667  -28.6150  -46.8162 S.3       10 UNK        -0.2568 
     17 C17        21.3801  -29.1479  -46.1305 C.3       10 UNK        -0.0983 
     18 CA         21.9733  -28.2122  -45.0378 C.3       3 UNK         0.0876 
     19 N          21.6221  -26.8118  -45.2674 N.am      3 UNK        -0.4424 
     20 C          22.1426  -25.7414  -44.6592 C.2       2 UNK         0.4918 
     21 O          23.0991  -25.7910  -43.8886 O.2       2 UNK        -0.4875 
     22 CA         21.4051  -24.4074  -44.8975 C.3       2 UNK         0.0481 
     23 CB         22.0302  -23.6484  -46.0770 C.3       2 UNK        -0.1831 
     24 N          19.9634  -24.5916  -45.1333 N.am      2 UNK        -0.4498 
     25 C          19.1210  -25.1476  -44.2468 C.2       1 UNK         0.5027 
     26 O          19.4677  -25.4510  -43.1043 O.2       1 UNK        -0.4969 
     27 C          21.6725  -28.7024  -43.6019 C.2       3 UNK         0.5005 
     28 O          22.3630  -29.6114  -43.1445 O.2       3 UNK        -0.5279 
     29 N          20.7103  -28.0879  -42.8933 N.am      4 UNK        -0.4463 
     30 CA         20.4637  -28.3510  -41.4713 C.3       4 UNK         0.0283 
     31 CB         19.0160  -28.0097  -41.0924 C.3       4 UNK        -0.1875 
     32 C          21.4418  -27.5768  -40.5802 C.2       4 UNK         0.4949 
     33 O          21.9026  -28.1251  -39.5807 O.2       4 UNK        -0.5039 
     34 N          21.7757  -26.3357  -40.9673 N.am      5 UNK        -0.4663 
     35 CA         22.7815  -25.5033  -40.2943 C.3       5 UNK         0.0242 
     36 CB         22.7378  -24.0744  -40.8590 C.3       5 UNK        -0.1982 
     37 C          24.2008  -26.0944  -40.3890 C.2       5 UNK         0.5017 
     38 O          24.9717  -25.9791  -39.4363 O.2       5 UNK        -0.5012 
     39 N          24.4950  -26.7604  -41.5144 N.am      6 UNK        -0.4439 
     40 CA         25.7013  -27.5610  -41.7443 C.3       6 UNK         0.0297 
     41 CB         25.8184  -27.8564  -43.2486 C.3       6 UNK        -0.2006 
     42 C          25.7506  -28.8759  -40.9346 C.2       6 UNK         0.4892 
     43 O          26.8206  -29.4829  -40.8652 O.2       6 UNK        -0.5089 
     44 N          24.6165  -29.2812  -40.3414 N.am      7 UNK        -0.4243 
     45 CA         24.3882  -30.4940  -39.5481 C.3       7 UNK         0.0196 
     46 CB         25.2912  -30.5094  -38.2930 C.3       7 UNK        -0.2007 
     47 C          24.4722  -31.7918  -40.3779 C.2       7 UNK         0.5020 
     48 O          24.4557  -31.7500  -41.6089 O.2       7 UNK        -0.5147 
     49 N          24.5193  -32.9320  -39.6732 N.am      8 UNK        -0.4734 
     50 CA         24.5434  -34.3051  -40.1997 C.3       8 UNK         0.0238 
     51 CB         25.8047  -34.5602  -41.0548 C.3       8 UNK        -0.1912 
     52 C          23.2371  -34.7283  -40.9054 C.2       8 UNK         0.5038 
     53 O          23.2763  -35.5654  -41.8097 O.2       8 UNK        -0.5046 
     54 N          22.1008  -34.1757  -40.4564 N.am      9 UNK        -0.4200 
     55 CA         20.7473  -34.6291  -40.8159 C.3       9 UNK         0.0839 
     56 C          20.4690  -36.0733  -40.3125 C.2       9 UNK         0.5513 
     57 N          19.7289  -36.8647  -41.0765 N.am      9 UNK        -0.7519 
     58 O          20.8785  -36.4628  -39.2204 O.2       9 UNK        -0.4960 
     59 C59        19.6611  -33.6566  -40.2839 C.3       10 UNK        -0.0876 
     60 S60        19.5820  -32.1047  -41.2402 S.3       10 UNK        -0.2414 
     61 C61        18.0591  -32.3981  -42.1927 C.3       10 UNK         0.0169 
     62 H62        16.1250  -22.7812  -47.2589 H         1 UNK         0.0903 
     63 H63        15.2848  -21.9022  -45.9806 H         1 UNK         0.0903 
     64 H64        16.9059  -21.4068  -46.4744 H         1 UNK         0.0903 
     65 H65        16.9186  -24.7288  -46.5502 H         1 UNK         0.3096 
     66 H66        17.8523  -26.3517  -45.4011 H         1 UNK         0.1121 
     67 H67        16.4583  -25.1164  -42.9746 H         1 UNK         0.0849 
     68 H68        17.2437  -26.6688  -42.9567 H         1 UNK         0.0849 
     69 H69        15.2638  -28.1683  -42.3103 H         1 UNK         0.0865 
     70 H70        14.2938  -28.8633  -43.5831 H         1 UNK         0.0865 
     71 H71        16.1984  -30.4214  -41.9064 H         1 UNK         0.1346 
     72 H72        19.1925  -31.8708  -44.6068 H         1 UNK         0.1412 
     73 H73        16.7592  -28.5289  -45.7184 H         1 UNK         0.1426 
     74 H74        19.3416  -30.9972  -46.8411 H         1 UNK         0.0716 
     75 H75        17.9752  -30.0875  -47.4258 H         1 UNK         0.0716 
     76 H76        21.3188  -30.1805  -45.7806 H         1 UNK         0.0695 
     77 H77        22.0718  -29.1784  -46.9736 H         1 UNK         0.0695 
     78 H78        23.0601  -28.2683  -45.1313 H         1 UNK         0.0983 
     79 H79        20.8487  -26.6746  -45.9022 H         1 UNK         0.3095 
     80 H80        21.5216  -23.7994  -43.9982 H         1 UNK         0.0454 
     81 H81        21.9283  -24.1976  -47.0138 H         1 UNK         0.0851 
     82 H82        21.5689  -22.6695  -46.2085 H         1 UNK         0.0851 
     83 H83        23.0957  -23.4822  -45.9115 H         1 UNK         0.0851 
     84 H84        19.6092  -24.3433  -46.0463 H         1 UNK         0.2976 
     85 H85        20.2062  -27.3092  -43.2993 H         1 UNK         0.3116 
     86 H86        20.6121  -29.4150  -41.2829 H         1 UNK         0.0646 
     87 H87        18.3111  -28.4762  -41.7749 H         1 UNK         0.0847 
     88 H88        18.7861  -28.3745  -40.0908 H         1 UNK         0.0847 
     89 H89        18.8293  -26.9360  -41.0928 H         1 UNK         0.0847 
     90 H90        21.3246  -25.9461  -41.7852 H         1 UNK         0.3040 
     91 H91        22.5180  -25.4582  -39.2351 H         1 UNK         0.1015 
     92 H92        23.0227  -24.0416  -41.9103 H         1 UNK         0.0786 
     93 H93        23.4259  -23.4235  -40.3177 H         1 UNK         0.0786 
     94 H94        21.7419  -23.6405  -40.7671 H         1 UNK         0.0786 
     95 H95        23.8310  -26.7034  -42.2807 H         1 UNK         0.3172 
     96 H96        26.5635  -26.9612  -41.4458 H         1 UNK         0.0595 
     97 H97        26.7485  -28.3808  -43.4720 H         1 UNK         0.0839 
     98 H98        25.8133  -26.9395  -43.8386 H         1 UNK         0.0839 
     99 H99        24.9996  -28.4869  -43.5963 H         1 UNK         0.0839 
    100 H100       23.7912  -28.7106  -40.4742 H         1 UNK         0.2998 
    101 H101       23.3538  -30.4246  -39.2085 H         1 UNK         0.0822 
    102 H102       24.9588  -31.2523  -37.5676 H         1 UNK         0.0787 
    103 H103       26.3287  -30.7355  -38.5420 H         1 UNK         0.0787 
    104 H104       25.2744  -29.5452  -37.7843 H         1 UNK         0.0787 
    105 H105       24.5266  -32.8568  -38.6648 H         1 UNK         0.3055 
    106 H106       24.6167  -34.9560  -39.3267 H         1 UNK         0.1106 
    107 H107       26.7104  -34.2635  -40.5261 H         1 UNK         0.0828 
    108 H108       25.9056  -35.6189  -41.2967 H         1 UNK         0.0828 
    109 H109       25.7732  -34.0162  -41.9991 H         1 UNK         0.0828 
    110 H110       22.1609  -33.4958  -39.7145 H         1 UNK         0.2931 
    111 H111       20.6901  -34.6445  -41.9067 H         1 UNK         0.0412 
    112 H112       19.5233  -37.7999  -40.7601 H         1 UNK         0.3472 
    113 H113       19.3825  -36.5519  -41.9705 H         1 UNK         0.3472 
    114 H114       18.6745  -34.1244  -40.3064 H         1 UNK         0.0970 
    115 H115       19.8409  -33.4149  -39.2349 H         1 UNK         0.0970 
    116 H116       18.1648  -33.3256  -42.7576 H         1 UNK         0.0612 
    117 H117       17.2297  -32.5526  -41.5007 H         1 UNK         0.0612 
@<TRIPOS>BOND
     1    1    2 1    
     2    1   62 1    
     3    1   63 1    
     4    1   64 1    
     5    2    3 2    
     6    2    4 am   BACKBONE|DICT|INTERRES
     7    4    5 1    
     8    4   65 1    
     9    5    6 1    
    10    5   25 1    
    11    5   66 1    
    12    6    7 1    
    13    6   67 1    
    14    6   68 1    
    15    7    8 1    
    16    8    9 1    
    17    8   69 1    
    18    8   70 1    
    19    9   10 ar   
    20    9   14 ar   
    21   10   11 ar   
    22   10   71 1    
    23   11   12 ar   
    24   11   61 1    
    25   12   13 ar   
    26   12   72 1    
    27   13   14 ar   
    28   13   15 1    
    29   14   73 1    
    30   15   16 1    
    31   15   74 1    
    32   15   75 1    
    33   16   17 1    
    34   17   18 1    
    35   17   76 1    
    36   17   77 1    
    37   18   19 1    
    38   18   27 1    
    39   18   78 1    
    40   19   20 am   BACKBONE|DICT|INTERRES
    41   19   79 1    
    42   20   21 2    
    43   20   22 1    
    44   22   23 1    
    45   22   24 1    
    46   22   80 1    
    47   23   81 1    
    48   23   82 1    
    49   23   83 1    
    50   24   25 am   BACKBONE|DICT|INTERRES
    51   24   84 1    
    52   25   26 2    
    53   27   28 2    
    54   27   29 am   BACKBONE|DICT|INTERRES
    55   29   30 1    
    56   29   85 1    
    57   30   31 1    
    58   30   32 1    
    59   30   86 1    
    60   31   87 1    
    61   31   88 1    
    62   31   89 1    
    63   32   33 2    
    64   32   34 am   BACKBONE|DICT|INTERRES
    65   34   35 1    
    66   34   90 1    
    67   35   36 1    
    68   35   37 1    
    69   35   91 1    
    70   36   92 1    
    71   36   93 1    
    72   36   94 1    
    73   37   38 2    
    74   37   39 am   BACKBONE|DICT|INTERRES
    75   39   40 1    
    76   39   95 1    
    77   40   41 1    
    78   40   42 1    
    79   40   96 1    
    80   41   97 1    
    81   41   98 1    
    82   41   99 1    
    83   42   43 2    
    84   42   44 am   BACKBONE|DICT|INTERRES
    85   44   45 1    
    86   44  100 1    
    87   45   46 1    
    88   45   47 1    
    89   45  101 1    
    90   46  102 1    
    91   46  103 1    
    92   46  104 1    
    93   47   48 2    
    94   47   49 am   BACKBONE|DICT|INTERRES
    95   49   50 1    
    96   49  105 1    
    97   50   51 1    
    98   50   52 1    
    99   50  106 1    
   100   51  107 1    
   101   51  108 1    
   102   51  109 1    
   103   52   53 2    
   104   52   54 am   BACKBONE|DICT|INTERRES
   105   54   55 1    
   106   54  110 1    
   107   55   56 1    
   108   55   59 1    
   109   55  111 1    
   110   56   57 am   BACKBONE|DICT|INTERRES
   111   56   58 2    
   112   57  112 1    
   113   57  113 1    
   114   59   60 1    
   115   59  114 1    
   116   59  115 1    
   117   60   61 1    
   118   61  116 1    
   119   61  117 1    
@<TRIPOS>SUBSTRUCTURE
     1 UNK         1 GROUP             0       ****    0 ROOT    
