@<TRIPOS>MOLECULE
3R8
117   119    1
SMALL
USER_CHARGES


@<TRIPOS>ATOM
      1 CA         15.7338  -24.5205  -45.1159 C.3       0 UNK        -0.2013 
      2 C          17.1607  -24.5180  -45.6422 C.2       0 UNK         0.4866 
      3 O          17.8747  -23.5278  -45.4794 O.2       0 UNK        -0.5176 
      4 N          17.5868  -25.6217  -46.2678 N.am      1 UNK        -0.4884 
      5 CA         18.9169  -25.8557  -46.8469 C.3       1 UNK         0.0853 
      6 C6         18.8899  -26.9592  -47.9510 C.3       10 UNK        -0.0849 
      7 S7         17.7369  -28.3585  -47.6800 S.3       10 UNK        -0.2776 
      8 C8         18.7632  -29.5929  -46.8015 C.3       10 UNK         0.0316 
      9 C9         18.2997  -29.9287  -45.3803 C.ar      10 UNK        -0.0863 
     10 C10        18.7675  -31.1029  -44.7808 C.ar      10 UNK        -0.1009 
     11 C11        18.3974  -31.4519  -43.4732 C.ar      10 UNK        -0.0712 
     12 C12        17.5361  -30.6050  -42.7685 C.ar      10 UNK        -0.0894 
     13 C13        17.0463  -29.4358  -43.3547 C.ar      10 UNK        -0.0745 
     14 C14        17.4368  -29.1019  -44.6523 C.ar      10 UNK        -0.0972 
     15 C15        16.0734  -28.5375  -42.6070 C.3       10 UNK         0.0209 
     16 S16        16.7643  -26.8786  -42.3300 S.3       10 UNK        -0.2568 
     17 C17        17.9059  -27.1765  -40.9388 C.3       10 UNK        -0.0983 
     18 CA         19.3956  -27.3474  -41.3457 C.3       3 UNK         0.0876 
     19 N          19.8220  -26.3264  -42.3083 N.am      3 UNK        -0.4424 
     20 C          21.0560  -26.1174  -42.7874 C.2       2 UNK         0.4918 
     21 O          22.0546  -26.7684  -42.4663 O.2       2 UNK        -0.4875 
     22 CA         21.1753  -24.9727  -43.8103 C.3       2 UNK         0.0481 
     23 CB         22.5977  -24.8332  -44.3914 C.3       2 UNK        -0.1831 
     24 N          20.1766  -25.0657  -44.8844 N.am      2 UNK        -0.4498 
     25 C          20.0232  -26.0540  -45.7798 C.2       1 UNK         0.5027 
     26 O          20.7270  -27.0623  -45.8001 O.2       1 UNK        -0.4969 
     27 C          20.2744  -27.3212  -40.0794 C.2       3 UNK         0.5005 
     28 O          20.2854  -26.3028  -39.3835 O.2       3 UNK        -0.5279 
     29 N          21.0280  -28.4004  -39.8291 N.am      4 UNK        -0.4463 
     30 CA         21.9916  -28.6111  -38.7350 C.3       4 UNK         0.0283 
     31 CB         21.3075  -28.5386  -37.3563 C.3       4 UNK        -0.1875 
     32 C          23.2464  -27.7158  -38.7798 C.2       4 UNK         0.4949 
     33 O          24.3065  -28.1603  -38.3397 O.2       4 UNK        -0.5039 
     34 N          23.1251  -26.4951  -39.3174 N.am      5 UNK        -0.4663 
     35 CA         24.2080  -25.5322  -39.5339 C.3       5 UNK         0.0242 
     36 CB         23.6106  -24.2039  -40.0259 C.3       5 UNK        -0.1982 
     37 C          25.2774  -26.0391  -40.5158 C.2       5 UNK         0.5017 
     38 O          26.4588  -25.7497  -40.3222 O.2       5 UNK        -0.5012 
     39 N          24.8451  -26.8016  -41.5266 N.am      6 UNK        -0.4439 
     40 CA         25.7117  -27.5230  -42.4566 C.3       6 UNK         0.0297 
     41 CB         25.9797  -26.6777  -43.7129 C.3       6 UNK        -0.2006 
     42 C          25.1104  -28.8860  -42.8178 C.2       6 UNK         0.4892 
     43 O          25.8401  -29.8782  -42.8324 O.2       6 UNK        -0.5089 
     44 N          23.7994  -28.9253  -43.0900 N.am      7 UNK        -0.4243 
     45 CA         23.0671  -30.1386  -43.4335 C.3       7 UNK         0.0196 
     46 CB         21.9841  -29.7920  -44.4653 C.3       7 UNK        -0.2007 
     47 C          22.4768  -30.7485  -42.1569 C.2       7 UNK         0.5020 
     48 O          21.3613  -30.4033  -41.7635 O.2       7 UNK        -0.5147 
     49 N          23.2580  -31.6137  -41.5016 N.am      8 UNK        -0.4734 
     50 CA         22.8325  -32.3610  -40.3135 C.3       8 UNK         0.0238 
     51 CB         24.0651  -32.6968  -39.4589 C.3       8 UNK        -0.1912 
     52 C          22.0445  -33.6362  -40.6589 C.2       8 UNK         0.5038 
     53 O          21.2640  -34.0962  -39.8252 O.2       8 UNK        -0.5046 
     54 N          22.2628  -34.1797  -41.8659 N.am      9 UNK        -0.4200 
     55 CA         21.6422  -35.4083  -42.3974 C.3       9 UNK         0.0839 
     56 C          22.0146  -36.7130  -41.6258 C.2       9 UNK         0.5513 
     57 N          23.1036  -36.7410  -40.8664 N.am      9 UNK        -0.7519 
     58 O          21.3302  -37.7271  -41.7389 O.2       9 UNK        -0.4960 
     59 C59        20.1108  -35.2628  -42.6369 C.3       10 UNK        -0.0876 
     60 S60        19.7115  -33.9504  -43.8408 S.3       10 UNK        -0.2414 
     61 C61        18.9058  -32.7126  -42.7677 C.3       10 UNK         0.0169 
     62 H62        15.2470  -25.4846  -45.2627 H         1 UNK         0.0903 
     63 H63        15.7282  -24.3002  -44.0487 H         1 UNK         0.0903 
     64 H64        15.1441  -23.7589  -45.6251 H         1 UNK         0.0903 
     65 H65        16.9528  -26.4009  -46.3787 H         1 UNK         0.3096 
     66 H66        19.2041  -24.9321  -47.3555 H         1 UNK         0.1121 
     67 H67        19.8873  -27.3367  -48.1842 H         1 UNK         0.0849 
     68 H68        18.5603  -26.4906  -48.8796 H         1 UNK         0.0849 
     69 H69        18.7575  -30.5056  -47.3993 H         1 UNK         0.0865 
     70 H70        19.8023  -29.2673  -46.7643 H         1 UNK         0.0865 
     71 H71        19.4359  -31.7367  -45.3446 H         1 UNK         0.1346 
     72 H72        17.2412  -30.8624  -41.7602 H         1 UNK         0.1412 
     73 H73        17.0591  -28.1866  -45.0806 H         1 UNK         0.1426 
     74 H74        15.7724  -28.9781  -41.6554 H         1 UNK         0.0716 
     75 H75        15.1623  -28.4401  -43.1990 H         1 UNK         0.0716 
     76 H76        17.5692  -28.0468  -40.3726 H         1 UNK         0.0695 
     77 H77        17.7860  -26.3232  -40.2679 H         1 UNK         0.0695 
     78 H78        19.5104  -28.3144  -41.8407 H         1 UNK         0.0983 
     79 H79        19.0765  -25.7407  -42.6537 H         1 UNK         0.3095 
     80 H80        20.9545  -24.0538  -43.2656 H         1 UNK         0.0454 
     81 H81        22.8967  -25.7242  -44.9437 H         1 UNK         0.0851 
     82 H82        23.3314  -24.6782  -43.5994 H         1 UNK         0.0851 
     83 H83        22.6679  -23.9815  -45.0674 H         1 UNK         0.0851 
     84 H84        19.5131  -24.2963  -44.9493 H         1 UNK         0.2976 
     85 H85        21.0137  -29.1502  -40.5229 H         1 UNK         0.3116 
     86 H86        22.3522  -29.6311  -38.8621 H         1 UNK         0.0646 
     87 H87        20.9430  -27.5359  -37.1320 H         1 UNK         0.0847 
     88 H88        22.0046  -28.8116  -36.5631 H         1 UNK         0.0847 
     89 H89        20.4632  -29.2250  -37.2954 H         1 UNK         0.0847 
     90 H90        22.1875  -26.2067  -39.5821 H         1 UNK         0.3040 
     91 H91        24.6980  -25.3599  -38.5732 H         1 UNK         0.1015 
     92 H92        23.0828  -24.3245  -40.9726 H         1 UNK         0.0786 
     93 H93        24.3913  -23.4575  -40.1793 H         1 UNK         0.0786 
     94 H94        22.9078  -23.7928  -39.3008 H         1 UNK         0.0786 
     95 H95        23.8448  -26.9544  -41.6113 H         1 UNK         0.3172 
     96 H96        26.6691  -27.7223  -41.9697 H         1 UNK         0.0595 
     97 H97        25.0634  -26.4710  -44.2644 H         1 UNK         0.0839 
     98 H98        26.6577  -27.1962  -44.3921 H         1 UNK         0.0839 
     99 H99        26.4419  -25.7237  -43.4590 H         1 UNK         0.0839 
    100 H100       23.2364  -28.0817  -43.0177 H         1 UNK         0.2998 
    101 H101       23.7375  -30.8664  -43.8962 H         1 UNK         0.0822 
    102 H102       22.4093  -29.3015  -45.3409 H         1 UNK         0.0787 
    103 H103       21.4905  -30.6982  -44.8119 H         1 UNK         0.0787 
    104 H104       21.2175  -29.1322  -44.0556 H         1 UNK         0.0787 
    105 H105       24.1932  -31.7838  -41.8475 H         1 UNK         0.3055 
    106 H106       22.1654  -31.7387  -39.7146 H         1 UNK         0.1106 
    107 H107       23.7793  -33.2430  -38.5587 H         1 UNK         0.0828 
    108 H108       24.7811  -33.3145  -40.0020 H         1 UNK         0.0828 
    109 H109       24.5795  -31.7913  -39.1357 H         1 UNK         0.0828 
    110 H110       22.9239  -33.7264  -42.4780 H         1 UNK         0.2931 
    111 H111       22.0989  -35.5491  -43.3778 H         1 UNK         0.0412 
    112 H112       23.6859  -35.9244  -40.7746 H         1 UNK         0.3472 
    113 H113       23.3439  -37.5906  -40.3797 H         1 UNK         0.3472 
    114 H114       19.5860  -35.0902  -41.6962 H         1 UNK         0.0970 
    115 H115       19.6973  -36.1888  -43.0402 H         1 UNK         0.0970 
    116 H116       19.6072  -32.4153  -41.9883 H         1 UNK         0.0612 
    117 H117       18.0676  -33.1970  -42.2646 H         1 UNK         0.0612 
@<TRIPOS>BOND
     1    1    2 1    
     2    1   62 1    
     3    1   63 1    
     4    1   64 1    
     5    2    3 2    
     6    2    4 am   BACKBONE|DICT|INTERRES
     7    4    5 1    
     8    4   65 1    
     9    5    6 1    
    10    5   25 1    
    11    5   66 1    
    12    6    7 1    
    13    6   67 1    
    14    6   68 1    
    15    7    8 1    
    16    8    9 1    
    17    8   69 1    
    18    8   70 1    
    19    9   10 ar   
    20    9   14 ar   
    21   10   11 ar   
    22   10   71 1    
    23   11   12 ar   
    24   11   61 1    
    25   12   13 ar   
    26   12   72 1    
    27   13   14 ar   
    28   13   15 1    
    29   14   73 1    
    30   15   16 1    
    31   15   74 1    
    32   15   75 1    
    33   16   17 1    
    34   17   18 1    
    35   17   76 1    
    36   17   77 1    
    37   18   19 1    
    38   18   27 1    
    39   18   78 1    
    40   19   20 am   BACKBONE|DICT|INTERRES
    41   19   79 1    
    42   20   21 2    
    43   20   22 1    
    44   22   23 1    
    45   22   24 1    
    46   22   80 1    
    47   23   81 1    
    48   23   82 1    
    49   23   83 1    
    50   24   25 am   BACKBONE|DICT|INTERRES
    51   24   84 1    
    52   25   26 2    
    53   27   28 2    
    54   27   29 am   BACKBONE|DICT|INTERRES
    55   29   30 1    
    56   29   85 1    
    57   30   31 1    
    58   30   32 1    
    59   30   86 1    
    60   31   87 1    
    61   31   88 1    
    62   31   89 1    
    63   32   33 2    
    64   32   34 am   BACKBONE|DICT|INTERRES
    65   34   35 1    
    66   34   90 1    
    67   35   36 1    
    68   35   37 1    
    69   35   91 1    
    70   36   92 1    
    71   36   93 1    
    72   36   94 1    
    73   37   38 2    
    74   37   39 am   BACKBONE|DICT|INTERRES
    75   39   40 1    
    76   39   95 1    
    77   40   41 1    
    78   40   42 1    
    79   40   96 1    
    80   41   97 1    
    81   41   98 1    
    82   41   99 1    
    83   42   43 2    
    84   42   44 am   BACKBONE|DICT|INTERRES
    85   44   45 1    
    86   44  100 1    
    87   45   46 1    
    88   45   47 1    
    89   45  101 1    
    90   46  102 1    
    91   46  103 1    
    92   46  104 1    
    93   47   48 2    
    94   47   49 am   BACKBONE|DICT|INTERRES
    95   49   50 1    
    96   49  105 1    
    97   50   51 1    
    98   50   52 1    
    99   50  106 1    
   100   51  107 1    
   101   51  108 1    
   102   51  109 1    
   103   52   53 2    
   104   52   54 am   BACKBONE|DICT|INTERRES
   105   54   55 1    
   106   54  110 1    
   107   55   56 1    
   108   55   59 1    
   109   55  111 1    
   110   56   57 am   BACKBONE|DICT|INTERRES
   111   56   58 2    
   112   57  112 1    
   113   57  113 1    
   114   59   60 1    
   115   59  114 1    
   116   59  115 1    
   117   60   61 1    
   118   61  116 1    
   119   61  117 1    
@<TRIPOS>SUBSTRUCTURE
     1 UNK         1 GROUP             0       ****    0 ROOT    
