@<TRIPOS>MOLECULE
3R8
117   119    1
SMALL
USER_CHARGES


@<TRIPOS>ATOM
      1 CA         15.8601  -23.1337  -46.1344 C.3       0 UNK        -0.2013 
      2 C          17.2068  -23.8004  -46.3709 C.2       0 UNK         0.4866 
      3 O          18.1277  -23.1592  -46.8772 O.2       0 UNK        -0.5176 
      4 N          17.3300  -25.0837  -46.0075 N.am      1 UNK        -0.4884 
      5 CA         18.5457  -25.8919  -46.1855 C.3       1 UNK         0.0853 
      6 C6         18.2609  -27.4072  -46.0584 C.3       10 UNK        -0.0849 
      7 S7         16.8815  -28.0226  -47.0887 S.3       10 UNK        -0.2776 
      8 C8         17.1454  -29.8357  -47.0649 C.3       10 UNK         0.0316 
      9 C9         17.7077  -30.3385  -45.7395 C.ar      10 UNK        -0.0863 
     10 C10        18.9756  -30.9251  -45.6918 C.ar      10 UNK        -0.1009 
     11 C11        19.5401  -31.2968  -44.4688 C.ar      10 UNK        -0.0712 
     12 C12        18.8349  -31.0669  -43.2830 C.ar      10 UNK        -0.0894 
     13 C13        17.5647  -30.4856  -43.3207 C.ar      10 UNK        -0.0745 
     14 C14        16.9938  -30.1523  -44.5523 C.ar      10 UNK        -0.0972 
     15 C15        16.8149  -30.1714  -42.0379 C.3       10 UNK         0.0209 
     16 S16        16.9633  -28.4021  -41.6242 S.3       10 UNK        -0.2568 
     17 C17        18.3123  -28.3739  -40.3936 C.3       10 UNK        -0.0983 
     18 CA         19.6751  -27.8547  -40.9251 C.3       3 UNK         0.0876 
     19 N          19.5480  -26.5880  -41.6580 N.am      3 UNK        -0.4424 
     20 C          20.5519  -25.8645  -42.1764 C.2       2 UNK         0.4918 
     21 O          21.7403  -26.1890  -42.1197 O.2       2 UNK        -0.4875 
     22 CA         20.1301  -24.5714  -42.8997 C.3       2 UNK         0.0481 
     23 CB         21.3187  -23.6556  -43.2632 C.3       2 UNK        -0.1831 
     24 N          19.3023  -24.8713  -44.0737 N.am      2 UNK        -0.4498 
     25 C          19.6688  -25.5227  -45.1908 C.2       1 UNK         0.5027 
     26 O          20.8224  -25.8712  -45.4431 O.2       1 UNK        -0.4969 
     27 C          20.6592  -27.7273  -39.7418 C.2       3 UNK         0.5005 
     28 O          20.5914  -26.7443  -38.9995 O.2       3 UNK        -0.5279 
     29 N          21.5617  -28.7057  -39.6028 N.am      4 UNK        -0.4463 
     30 CA         22.6532  -28.8278  -38.6252 C.3       4 UNK         0.0283 
     31 CB         22.1452  -28.7671  -37.1717 C.3       4 UNK        -0.1875 
     32 C          23.8197  -27.8509  -38.8586 C.2       4 UNK         0.4949 
     33 O          24.9667  -28.2354  -38.6326 O.2       4 UNK        -0.5039 
     34 N          23.5270  -26.6276  -39.3177 N.am      5 UNK        -0.4663 
     35 CA         24.5132  -25.6086  -39.6785 C.3       5 UNK         0.0242 
     36 CB         23.8195  -24.2450  -39.8241 C.3       5 UNK        -0.1982 
     37 C          25.2906  -25.9816  -40.9509 C.2       5 UNK         0.5017 
     38 O          26.5218  -25.9523  -40.9331 O.2       5 UNK        -0.5012 
     39 N          24.5648  -26.3428  -42.0188 N.am      6 UNK        -0.4439 
     40 CA         25.1384  -26.8585  -43.2634 C.3       6 UNK         0.0297 
     41 CB         24.1617  -26.6282  -44.4290 C.3       6 UNK        -0.2006 
     42 C          25.4959  -28.3458  -43.1264 C.2       6 UNK         0.4892 
     43 O          26.6341  -28.7276  -43.4003 O.2       6 UNK        -0.5089 
     44 N          24.5197  -29.1455  -42.6836 N.am      7 UNK        -0.4243 
     45 CA         24.6170  -30.5773  -42.4170 C.3       7 UNK         0.0196 
     46 CB         24.7230  -31.3734  -43.7323 C.3       7 UNK        -0.2007 
     47 C          23.3697  -30.9910  -41.6318 C.2       7 UNK         0.5020 
     48 O          22.3462  -30.3056  -41.7109 O.2       7 UNK        -0.5147 
     49 N          23.4618  -32.0967  -40.8857 N.am      8 UNK        -0.4734 
     50 CA         22.3522  -32.6264  -40.0860 C.3       8 UNK         0.0238 
     51 CB         22.9120  -33.4508  -38.9156 C.3       8 UNK        -0.1912 
     52 C          21.3595  -33.4622  -40.9108 C.2       8 UNK         0.5038 
     53 O          20.1605  -33.3973  -40.6406 O.2       8 UNK        -0.5046 
     54 N          21.8744  -34.2327  -41.8823 N.am      9 UNK        -0.4200 
     55 CA         21.1248  -35.1975  -42.7134 C.3       9 UNK         0.0839 
     56 C          20.4751  -36.3711  -41.9124 C.2       9 UNK         0.5513 
     57 N          20.9584  -36.6999  -40.7199 N.am      9 UNK        -0.7519 
     58 O          19.5448  -37.0195  -42.3852 O.2       9 UNK        -0.4960 
     59 C59        20.1366  -34.5117  -43.7039 C.3       10 UNK        -0.0876 
     60 S60        20.9983  -33.6030  -45.0314 S.3       10 UNK        -0.2414 
     61 C61        20.9383  -31.8903  -44.4294 C.3       10 UNK         0.0169 
     62 H62        15.1401  -23.8162  -45.6830 H         1 UNK         0.0903 
     63 H63        15.9766  -22.2765  -45.4718 H         1 UNK         0.0903 
     64 H64        15.4459  -22.7807  -47.0784 H         1 UNK         0.0903 
     65 H65        16.5323  -25.5765  -45.6298 H         1 UNK         0.3096 
     66 H66        18.9320  -25.7019  -47.1896 H         1 UNK         0.1121 
     67 H67        18.0344  -27.6532  -45.0188 H         1 UNK         0.0849 
     68 H68        19.1581  -27.9740  -46.3173 H         1 UNK         0.0849 
     69 H69        16.1988  -30.3375  -47.2698 H         1 UNK         0.0865 
     70 H70        17.8129  -30.0976  -47.8872 H         1 UNK         0.0865 
     71 H71        19.5395  -31.0716  -46.6031 H         1 UNK         0.1346 
     72 H72        19.2823  -31.3228  -42.3319 H         1 UNK         0.1412 
     73 H73        16.0200  -29.6821  -44.5824 H         1 UNK         0.1426 
     74 H74        17.1631  -30.7977  -41.2155 H         1 UNK         0.0716 
     75 H75        15.7588  -30.4106  -42.1713 H         1 UNK         0.0716 
     76 H76        18.4324  -29.3700  -39.9640 H         1 UNK         0.0695 
     77 H77        17.9640  -27.7417  -39.5738 H         1 UNK         0.0695 
     78 H78        20.0706  -28.5857  -41.6341 H         1 UNK         0.0983 
     79 H79        18.6039  -26.2469  -41.7594 H         1 UNK         0.3095 
     80 H80        19.4944  -24.0162  -42.2084 H         1 UNK         0.0454 
     81 H81        22.0551  -24.1623  -43.8866 H         1 UNK         0.0851 
     82 H82        21.8354  -23.3166  -42.3659 H         1 UNK         0.0851 
     83 H83        20.9845  -22.7665  -43.7974 H         1 UNK         0.0851 
     84 H84        18.3236  -24.6341  -43.9918 H         1 UNK         0.2976 
     85 H85        21.6087  -29.3977  -40.3510 H         1 UNK         0.3116 
     86 H86        23.0626  -29.8275  -38.7759 H         1 UNK         0.0646 
     87 H87        21.7674  -27.7789  -36.9087 H         1 UNK         0.0847 
     88 H88        22.9496  -28.9981  -36.4723 H         1 UNK         0.0847 
     89 H89        21.3481  -29.4899  -36.9988 H         1 UNK         0.0847 
     90 H90        22.5467  -26.3964  -39.4422 H         1 UNK         0.3040 
     91 H91        25.2357  -25.5337  -38.8625 H         1 UNK         0.1015 
     92 H92        23.0347  -24.2698  -40.5790 H         1 UNK         0.0786 
     93 H93        24.5320  -23.4721  -40.1158 H         1 UNK         0.0786 
     94 H94        23.3667  -23.9303  -38.8837 H         1 UNK         0.0786 
     95 H95        23.5474  -26.3146  -41.9569 H         1 UNK         0.3172 
     96 H96        26.0555  -26.3088  -43.4863 H         1 UNK         0.0595 
     97 H97        23.2018  -27.1201  -44.2663 H         1 UNK         0.0839 
     98 H98        24.5709  -27.0146  -45.3632 H         1 UNK         0.0839 
     99 H99        23.9671  -25.5663  -44.5771 H         1 UNK         0.0839 
    100 H100       23.6107  -28.7529  -42.4699 H         1 UNK         0.2998 
    101 H101       25.4977  -30.7605  -41.7980 H         1 UNK         0.0822 
    102 H102       25.6529  -31.1551  -44.2571 H         1 UNK         0.0787 
    103 H103       24.7047  -32.4484  -43.5489 H         1 UNK         0.0787 
    104 H104       23.8999  -31.1425  -44.4082 H         1 UNK         0.0787 
    105 H105       24.3357  -32.6038  -40.8582 H         1 UNK         0.3055 
    106 H106       21.7888  -31.7925  -39.6609 H         1 UNK         0.1106 
    107 H107       22.1056  -33.8507  -38.2988 H         1 UNK         0.0828 
    108 H108       23.5096  -34.2958  -39.2596 H         1 UNK         0.0828 
    109 H109       23.5389  -32.8393  -38.2663 H         1 UNK         0.0828 
    110 H110       22.8723  -34.2148  -42.0291 H         1 UNK         0.2931 
    111 H111       21.8827  -35.6959  -43.3189 H         1 UNK         0.0412 
    112 H112       21.7348  -36.1964  -40.3231 H         1 UNK         0.3472 
    113 H113       20.5417  -37.4660  -40.2141 H         1 UNK         0.3472 
    114 H114       19.4383  -33.8608  -43.1777 H         1 UNK         0.0970 
    115 H115       19.5167  -35.2536  -44.2097 H         1 UNK         0.0970 
    116 H116       21.3340  -31.8680  -43.4187 H         1 UNK         0.0612 
    117 H117       21.6032  -31.2765  -45.0378 H         1 UNK         0.0612 
@<TRIPOS>BOND
     1    1    2 1    
     2    1   62 1    
     3    1   63 1    
     4    1   64 1    
     5    2    3 2    
     6    2    4 am   BACKBONE|DICT|INTERRES
     7    4    5 1    
     8    4   65 1    
     9    5    6 1    
    10    5   25 1    
    11    5   66 1    
    12    6    7 1    
    13    6   67 1    
    14    6   68 1    
    15    7    8 1    
    16    8    9 1    
    17    8   69 1    
    18    8   70 1    
    19    9   10 ar   
    20    9   14 ar   
    21   10   11 ar   
    22   10   71 1    
    23   11   12 ar   
    24   11   61 1    
    25   12   13 ar   
    26   12   72 1    
    27   13   14 ar   
    28   13   15 1    
    29   14   73 1    
    30   15   16 1    
    31   15   74 1    
    32   15   75 1    
    33   16   17 1    
    34   17   18 1    
    35   17   76 1    
    36   17   77 1    
    37   18   19 1    
    38   18   27 1    
    39   18   78 1    
    40   19   20 am   BACKBONE|DICT|INTERRES
    41   19   79 1    
    42   20   21 2    
    43   20   22 1    
    44   22   23 1    
    45   22   24 1    
    46   22   80 1    
    47   23   81 1    
    48   23   82 1    
    49   23   83 1    
    50   24   25 am   BACKBONE|DICT|INTERRES
    51   24   84 1    
    52   25   26 2    
    53   27   28 2    
    54   27   29 am   BACKBONE|DICT|INTERRES
    55   29   30 1    
    56   29   85 1    
    57   30   31 1    
    58   30   32 1    
    59   30   86 1    
    60   31   87 1    
    61   31   88 1    
    62   31   89 1    
    63   32   33 2    
    64   32   34 am   BACKBONE|DICT|INTERRES
    65   34   35 1    
    66   34   90 1    
    67   35   36 1    
    68   35   37 1    
    69   35   91 1    
    70   36   92 1    
    71   36   93 1    
    72   36   94 1    
    73   37   38 2    
    74   37   39 am   BACKBONE|DICT|INTERRES
    75   39   40 1    
    76   39   95 1    
    77   40   41 1    
    78   40   42 1    
    79   40   96 1    
    80   41   97 1    
    81   41   98 1    
    82   41   99 1    
    83   42   43 2    
    84   42   44 am   BACKBONE|DICT|INTERRES
    85   44   45 1    
    86   44  100 1    
    87   45   46 1    
    88   45   47 1    
    89   45  101 1    
    90   46  102 1    
    91   46  103 1    
    92   46  104 1    
    93   47   48 2    
    94   47   49 am   BACKBONE|DICT|INTERRES
    95   49   50 1    
    96   49  105 1    
    97   50   51 1    
    98   50   52 1    
    99   50  106 1    
   100   51  107 1    
   101   51  108 1    
   102   51  109 1    
   103   52   53 2    
   104   52   54 am   BACKBONE|DICT|INTERRES
   105   54   55 1    
   106   54  110 1    
   107   55   56 1    
   108   55   59 1    
   109   55  111 1    
   110   56   57 am   BACKBONE|DICT|INTERRES
   111   56   58 2    
   112   57  112 1    
   113   57  113 1    
   114   59   60 1    
   115   59  114 1    
   116   59  115 1    
   117   60   61 1    
   118   61  116 1    
   119   61  117 1    
@<TRIPOS>SUBSTRUCTURE
     1 UNK         1 GROUP             0       ****    0 ROOT    
