@<TRIPOS>MOLECULE
3R8
117   119    1
SMALL
USER_CHARGES


@<TRIPOS>ATOM
      1 CA         14.8107  -22.2977  -44.0768 C.3       0 UNK        -0.2013 
      2 C          15.8547  -23.3802  -44.3067 C.2       0 UNK         0.4866 
      3 O          16.5689  -23.7355  -43.3703 O.2       0 UNK        -0.5176 
      4 N          15.9532  -23.8737  -45.5502 N.am      1 UNK        -0.4884 
      5 CA         16.7991  -24.9528  -46.1004 C.3       1 UNK         0.0853 
      6 C6         16.3128  -26.3844  -45.7433 C.3       10 UNK        -0.0849 
      7 S7         16.6039  -26.9419  -44.0278 S.3       10 UNK        -0.2776 
      8 C8         16.1885  -28.7147  -44.1528 C.3       10 UNK         0.0316 
      9 C9         17.4292  -29.5996  -44.1947 C.ar      10 UNK        -0.0863 
     10 C10        17.6344  -30.5760  -43.2151 C.ar      10 UNK        -0.1009 
     11 C11        18.7651  -31.3976  -43.2541 C.ar      10 UNK        -0.0712 
     12 C12        19.7057  -31.2254  -44.2753 C.ar      10 UNK        -0.0894 
     13 C13        19.5212  -30.2471  -45.2586 C.ar      10 UNK        -0.0745 
     14 C14        18.3674  -29.4562  -45.2190 C.ar      10 UNK        -0.0972 
     15 C15        20.5435  -30.0978  -46.3846 C.3       10 UNK         0.0209 
     16 S16        20.7172  -28.3870  -47.0105 S.3       10 UNK        -0.2568 
     17 C17        22.2901  -27.8274  -46.2776 C.3       10 UNK        -0.0983 
     18 CA         22.1652  -26.9482  -45.0077 C.3       3 UNK         0.0876 
     19 N          21.2249  -25.8271  -45.1468 N.am      3 UNK        -0.4424 
     20 C          21.1831  -24.7639  -44.3319 C.2       2 UNK         0.4918 
     21 O          21.8992  -24.6507  -43.3358 O.2       2 UNK        -0.4875 
     22 CA         20.1818  -23.6414  -44.6542 C.3       2 UNK         0.0481 
     23 CB         20.7274  -22.7182  -45.7601 C.3       2 UNK        -0.1831 
     24 N          18.8112  -24.0808  -44.9466 N.am      2 UNK        -0.4498 
     25 C          18.3336  -24.7752  -45.9863 C.2       1 UNK         0.5027 
     26 O          19.0510  -25.2426  -46.8717 O.2       1 UNK        -0.4969 
     27 C          21.9769  -27.7798  -43.7233 C.2       3 UNK         0.5005 
     28 O          22.9200  -28.4621  -43.3229 O.2       3 UNK        -0.5279 
     29 N          20.8286  -27.6428  -43.0427 N.am      4 UNK        -0.4463 
     30 CA         20.5563  -28.2028  -41.7136 C.3       4 UNK         0.0283 
     31 CB         19.1331  -27.8188  -41.2816 C.3       4 UNK        -0.1875 
     32 C          21.5565  -27.7741  -40.6217 C.2       4 UNK         0.4949 
     33 O          21.7207  -28.4951  -39.6386 O.2       4 UNK        -0.5039 
     34 N          22.2092  -26.6173  -40.8067 N.am      5 UNK        -0.4663 
     35 CA         23.2688  -26.1191  -39.9283 C.3       5 UNK         0.0242 
     36 CB         23.4262  -24.6063  -40.1528 C.3       5 UNK        -0.1982 
     37 C          24.6197  -26.8334  -40.1296 C.2       5 UNK         0.5017 
     38 O          25.4714  -26.7406  -39.2446 O.2       5 UNK        -0.5012 
     39 N          24.8079  -27.5000  -41.2776 N.am      6 UNK        -0.4439 
     40 CA         26.0508  -28.1722  -41.6632 C.3       6 UNK         0.0297 
     41 CB         26.4801  -27.6721  -43.0530 C.3       6 UNK        -0.2006 
     42 C          25.9016  -29.7008  -41.6717 C.2       6 UNK         0.4892 
     43 O          26.8318  -30.3960  -41.2606 O.2       6 UNK        -0.5089 
     44 N          24.7580  -30.1983  -42.1594 N.am      7 UNK        -0.4243 
     45 CA         24.4411  -31.6196  -42.2828 C.3       7 UNK         0.0196 
     46 CB         23.1836  -31.7667  -43.1538 C.3       7 UNK        -0.2007 
     47 C          24.2266  -32.3013  -40.9226 C.2       7 UNK         0.5020 
     48 O          23.7428  -31.6756  -39.9768 O.2       7 UNK        -0.5147 
     49 N          24.5401  -33.6003  -40.8673 N.am      8 UNK        -0.4734 
     50 CA         24.2928  -34.4702  -39.7173 C.3       8 UNK         0.0238 
     51 CB         25.3417  -35.5986  -39.7085 C.3       8 UNK        -0.1912 
     52 C          22.8500  -35.0032  -39.7660 C.2       8 UNK         0.5038 
     53 O          22.6382  -36.1784  -40.0721 O.2       8 UNK        -0.5046 
     54 N          21.8839  -34.1135  -39.5069 N.am      9 UNK        -0.4200 
     55 CA         20.4394  -34.4016  -39.5386 C.3       9 UNK         0.0839 
     56 C          19.9358  -35.3839  -38.4399 C.2       9 UNK         0.5513 
     57 N          20.6875  -35.6367  -37.3749 N.am      9 UNK        -0.7519 
     58 O          18.8398  -35.9254  -38.5592 O.2       9 UNK        -0.4960 
     59 C59        19.5863  -33.1062  -39.5270 C.3       10 UNK        -0.0876 
     60 S60        20.0194  -31.9233  -40.8465 S.3       10 UNK        -0.2414 
     61 C61        18.9497  -32.4844  -42.2045 C.3       10 UNK         0.0169 
     62 H62        15.2900  -21.3812  -43.7336 H         1 UNK         0.0903 
     63 H63        14.2501  -22.0685  -44.9829 H         1 UNK         0.0903 
     64 H64        14.1027  -22.6180  -43.3130 H         1 UNK         0.0903 
     65 H65        15.3415  -23.4651  -46.2441 H         1 UNK         0.3096 
     66 H66        16.6243  -24.8582  -47.1740 H         1 UNK         0.1121 
     67 H67        16.7725  -27.0974  -46.4279 H         1 UNK         0.0849 
     68 H68        15.2414  -26.4568  -45.9365 H         1 UNK         0.0849 
     69 H69        15.5652  -28.9759  -43.2963 H         1 UNK         0.0865 
     70 H70        15.5778  -28.9028  -45.0369 H         1 UNK         0.0865 
     71 H71        16.9108  -30.7030  -42.4215 H         1 UNK         0.1346 
     72 H72        20.5763  -31.8646  -44.3094 H         1 UNK         0.1412 
     73 H73        18.1999  -28.7177  -45.9872 H         1 UNK         0.1426 
     74 H74        20.2248  -30.7313  -47.2131 H         1 UNK         0.0716 
     75 H75        21.5158  -30.4775  -46.0679 H         1 UNK         0.0716 
     76 H76        22.7930  -27.2432  -47.0498 H         1 UNK         0.0695 
     77 H77        22.9481  -28.6808  -46.1032 H         1 UNK         0.0695 
     78 H78        23.1467  -26.4861  -44.8767 H         1 UNK         0.0983 
     79 H79        20.5810  -25.8572  -45.9340 H         1 UNK         0.3095 
     80 H80        20.0951  -23.0385  -43.7488 H         1 UNK         0.0454 
     81 H81        20.8484  -23.2411  -46.7092 H         1 UNK         0.0851 
     82 H82        21.7045  -22.3186  -45.4855 H         1 UNK         0.0851 
     83 H83        20.0666  -21.8679  -45.9281 H         1 UNK         0.0851 
     84 H84        18.1132  -23.8254  -44.2479 H         1 UNK         0.2976 
     85 H85        20.1030  -27.0727  -43.4521 H         1 UNK         0.3116 
     86 H86        20.6153  -29.2871  -41.8075 H         1 UNK         0.0646 
     87 H87        18.3908  -28.1818  -41.9877 H         1 UNK         0.0847 
     88 H88        19.0127  -26.7382  -41.1959 H         1 UNK         0.0847 
     89 H89        18.8893  -28.2550  -40.3119 H         1 UNK         0.0847 
     90 H90        22.0070  -26.0675  -41.6342 H         1 UNK         0.3040 
     91 H91        22.9670  -26.2812  -38.8909 H         1 UNK         0.1015 
     92 H92        24.1807  -24.1876  -39.4852 H         1 UNK         0.0786 
     93 H93        22.4933  -24.0766  -39.9586 H         1 UNK         0.0786 
     94 H94        23.7332  -24.3802  -41.1749 H         1 UNK         0.0786 
     95 H95        24.0293  -27.5850  -41.9227 H         1 UNK         0.3172 
     96 H96        26.8503  -27.9264  -40.9612 H         1 UNK         0.0595 
     97 H97        25.7258  -27.8837  -43.8122 H         1 UNK         0.0839 
     98 H98        27.4070  -28.1514  -43.3712 H         1 UNK         0.0839 
     99 H99        26.6574  -26.5965  -43.0486 H         1 UNK         0.0839 
    100 H100       24.0467  -29.5545  -42.5012 H         1 UNK         0.2998 
    101 H101       25.2772  -32.1062  -42.7897 H         1 UNK         0.0822 
    102 H102       23.3407  -31.3555  -44.1512 H         1 UNK         0.0787 
    103 H103       22.9007  -32.8136  -43.2718 H         1 UNK         0.0787 
    104 H104       22.3347  -31.2451  -42.7098 H         1 UNK         0.0787 
    105 H105       24.8917  -34.0511  -41.7006 H         1 UNK         0.3055 
    106 H106       24.4082  -33.9013  -38.7914 H         1 UNK         0.1106 
    107 H107       25.2995  -36.2027  -40.6158 H         1 UNK         0.0828 
    108 H108       25.1848  -36.2695  -38.8628 H         1 UNK         0.0828 
    109 H109       26.3520  -35.1989  -39.6195 H         1 UNK         0.0828 
    110 H110       22.1475  -33.1514  -39.3335 H         1 UNK         0.2931 
    111 H111       20.2477  -34.9006  -40.4907 H         1 UNK         0.0412 
    112 H112       20.3504  -36.2764  -36.6724 H         1 UNK         0.3472 
    113 H113       21.5860  -35.1946  -37.2655 H         1 UNK         0.3472 
    114 H114       18.5230  -33.3422  -39.6008 H         1 UNK         0.0970 
    115 H115       19.7070  -32.5905  -38.5725 H         1 UNK         0.0970 
    116 H116       17.9772  -32.7828  -41.8105 H         1 UNK         0.0612 
    117 H117       19.3853  -33.3760  -42.6578 H         1 UNK         0.0612 
@<TRIPOS>BOND
     1    1    2 1    
     2    1   62 1    
     3    1   63 1    
     4    1   64 1    
     5    2    3 2    
     6    2    4 am   BACKBONE|DICT|INTERRES
     7    4    5 1    
     8    4   65 1    
     9    5    6 1    
    10    5   25 1    
    11    5   66 1    
    12    6    7 1    
    13    6   67 1    
    14    6   68 1    
    15    7    8 1    
    16    8    9 1    
    17    8   69 1    
    18    8   70 1    
    19    9   10 ar   
    20    9   14 ar   
    21   10   11 ar   
    22   10   71 1    
    23   11   12 ar   
    24   11   61 1    
    25   12   13 ar   
    26   12   72 1    
    27   13   14 ar   
    28   13   15 1    
    29   14   73 1    
    30   15   16 1    
    31   15   74 1    
    32   15   75 1    
    33   16   17 1    
    34   17   18 1    
    35   17   76 1    
    36   17   77 1    
    37   18   19 1    
    38   18   27 1    
    39   18   78 1    
    40   19   20 am   BACKBONE|DICT|INTERRES
    41   19   79 1    
    42   20   21 2    
    43   20   22 1    
    44   22   23 1    
    45   22   24 1    
    46   22   80 1    
    47   23   81 1    
    48   23   82 1    
    49   23   83 1    
    50   24   25 am   BACKBONE|DICT|INTERRES
    51   24   84 1    
    52   25   26 2    
    53   27   28 2    
    54   27   29 am   BACKBONE|DICT|INTERRES
    55   29   30 1    
    56   29   85 1    
    57   30   31 1    
    58   30   32 1    
    59   30   86 1    
    60   31   87 1    
    61   31   88 1    
    62   31   89 1    
    63   32   33 2    
    64   32   34 am   BACKBONE|DICT|INTERRES
    65   34   35 1    
    66   34   90 1    
    67   35   36 1    
    68   35   37 1    
    69   35   91 1    
    70   36   92 1    
    71   36   93 1    
    72   36   94 1    
    73   37   38 2    
    74   37   39 am   BACKBONE|DICT|INTERRES
    75   39   40 1    
    76   39   95 1    
    77   40   41 1    
    78   40   42 1    
    79   40   96 1    
    80   41   97 1    
    81   41   98 1    
    82   41   99 1    
    83   42   43 2    
    84   42   44 am   BACKBONE|DICT|INTERRES
    85   44   45 1    
    86   44  100 1    
    87   45   46 1    
    88   45   47 1    
    89   45  101 1    
    90   46  102 1    
    91   46  103 1    
    92   46  104 1    
    93   47   48 2    
    94   47   49 am   BACKBONE|DICT|INTERRES
    95   49   50 1    
    96   49  105 1    
    97   50   51 1    
    98   50   52 1    
    99   50  106 1    
   100   51  107 1    
   101   51  108 1    
   102   51  109 1    
   103   52   53 2    
   104   52   54 am   BACKBONE|DICT|INTERRES
   105   54   55 1    
   106   54  110 1    
   107   55   56 1    
   108   55   59 1    
   109   55  111 1    
   110   56   57 am   BACKBONE|DICT|INTERRES
   111   56   58 2    
   112   57  112 1    
   113   57  113 1    
   114   59   60 1    
   115   59  114 1    
   116   59  115 1    
   117   60   61 1    
   118   61  116 1    
   119   61  117 1    
@<TRIPOS>SUBSTRUCTURE
     1 UNK         1 GROUP             0       ****    0 ROOT    
