@<TRIPOS>MOLECULE
3R8
117   119    1
SMALL
USER_CHARGES


@<TRIPOS>ATOM
      1 CA         13.3815  -23.4557  -44.3569 C.3       0 UNK        -0.2013 
      2 C          14.6205  -24.0014  -45.0511 C.2       0 UNK         0.4866 
      3 O          15.0595  -23.4368  -46.0539 O.2       0 UNK        -0.5176 
      4 N          15.1817  -25.1004  -44.5323 N.am      1 UNK        -0.4884 
      5 CA         16.4015  -25.7389  -45.0393 C.3       1 UNK         0.0853 
      6 C6         16.5981  -27.1557  -44.4477 C.3       10 UNK        -0.0849 
      7 S7         15.2098  -28.2835  -44.8252 S.3       10 UNK        -0.2776 
      8 C8         15.9615  -29.4727  -45.9892 C.3       10 UNK         0.0316 
      9 C9         17.1581  -30.1991  -45.3868 C.ar      10 UNK        -0.0863 
     10 C10        17.0069  -30.9768  -44.2333 C.ar      10 UNK        -0.1009 
     11 C11        18.1137  -31.5935  -43.6431 C.ar      10 UNK        -0.0712 
     12 C12        19.3744  -31.4422  -44.2272 C.ar      10 UNK        -0.0894 
     13 C13        19.5362  -30.6875  -45.3922 C.ar      10 UNK        -0.0745 
     14 C14        18.4230  -30.0718  -45.9709 C.ar      10 UNK        -0.0972 
     15 C15        20.9185  -30.5276  -46.0119 C.3       10 UNK         0.0209 
     16 S16        21.5600  -28.8256  -45.8860 S.3       10 UNK        -0.2568 
     17 C17        21.4591  -28.4929  -44.0915 C.3       10 UNK        -0.0983 
     18 CA         21.6601  -26.9941  -43.7544 C.3       3 UNK         0.0876 
     19 N          20.7671  -26.1332  -44.5340 N.am      3 UNK        -0.4424 
     20 C          20.8861  -24.8062  -44.6654 C.2       2 UNK         0.4918 
     21 O          21.7799  -24.1427  -44.1387 O.2       2 UNK        -0.4875 
     22 CA         19.8523  -24.0962  -45.5600 C.3       2 UNK         0.0481 
     23 CB         20.4391  -23.8562  -46.9606 C.3       2 UNK        -0.1831 
     24 N          18.5888  -24.8308  -45.6882 N.am      2 UNK        -0.4498 
     25 C          17.6400  -24.8677  -44.7421 C.2       1 UNK         0.5027 
     26 O          17.7260  -24.2764  -43.6624 O.2       1 UNK        -0.4969 
     27 C          21.4528  -26.7437  -42.2479 C.2       3 UNK         0.5005 
     28 O          20.3084  -26.7389  -41.7863 O.2       3 UNK        -0.5279 
     29 N          22.5503  -26.5566  -41.5097 N.am      4 UNK        -0.4463 
     30 CA         22.5715  -26.3235  -40.0692 C.3       4 UNK         0.0283 
     31 CB         22.1615  -24.8759  -39.7388 C.3       4 UNK        -0.1875 
     32 C          23.9919  -26.6201  -39.5911 C.2       4 UNK         0.4949 
     33 O          24.9375  -26.0539  -40.1453 O.2       4 UNK        -0.5039 
     34 N          24.1163  -27.5199  -38.6055 N.am      5 UNK        -0.4663 
     35 CA         25.3495  -28.1290  -38.0818 C.3       5 UNK         0.0242 
     36 CB         26.2765  -27.0845  -37.4261 C.3       5 UNK        -0.1982 
     37 C          26.0834  -28.9759  -39.1380 C.2       5 UNK         0.5017 
     38 O          26.1506  -30.1976  -38.9991 O.2       5 UNK        -0.5012 
     39 N          26.5742  -28.3185  -40.1944 N.am      6 UNK        -0.4439 
     40 CA         27.0864  -28.9446  -41.4084 C.3       6 UNK         0.0297 
     41 CB         27.8927  -27.9129  -42.2128 C.3       6 UNK        -0.2006 
     42 C          25.9144  -29.4883  -42.2387 C.2       6 UNK         0.4892 
     43 O          24.9482  -28.7572  -42.4741 O.2       6 UNK        -0.5089 
     44 N          26.0295  -30.7598  -42.6471 N.am      7 UNK        -0.4243 
     45 CA         25.0520  -31.5398  -43.4203 C.3       7 UNK         0.0196 
     46 CB         24.8709  -30.9426  -44.8333 C.3       7 UNK        -0.2007 
     47 C          23.7017  -31.7636  -42.7057 C.2       7 UNK         0.5020 
     48 O          22.7229  -32.1046  -43.3678 O.2       7 UNK        -0.5147 
     49 N          23.6569  -31.5815  -41.3783 N.am      8 UNK        -0.4734 
     50 CA         22.4544  -31.7463  -40.5589 C.3       8 UNK         0.0238 
     51 CB         22.7231  -31.1770  -39.1571 C.3       8 UNK        -0.1912 
     52 C          21.9976  -33.2139  -40.4743 C.2       8 UNK         0.5038 
     53 O          22.8347  -34.1203  -40.4787 O.2       8 UNK        -0.5046 
     54 N          20.6780  -33.4082  -40.3704 N.am      9 UNK        -0.4200 
     55 CA         20.0204  -34.7245  -40.2953 C.3       9 UNK         0.0839 
     56 C          20.0953  -35.4048  -38.8967 C.2       9 UNK         0.5513 
     57 N          20.5759  -34.7398  -37.8526 N.am      9 UNK        -0.7519 
     58 O          19.7144  -36.5644  -38.7586 O.2       9 UNK        -0.4960 
     59 C59        18.5554  -34.6620  -40.8092 C.3       10 UNK        -0.0876 
     60 S60        18.4425  -34.1245  -42.5508 S.3       10 UNK        -0.2414 
     61 C61        17.9646  -32.3794  -42.3485 C.3       10 UNK         0.0169 
     62 H62        13.5631  -22.4384  -44.0112 H         1 UNK         0.0903 
     63 H63        12.5411  -23.4355  -45.0502 H         1 UNK         0.0903 
     64 H64        13.0963  -24.0605  -43.4963 H         1 UNK         0.0903 
     65 H65        14.7842  -25.5213  -43.7046 H         1 UNK         0.3096 
     66 H66        16.2996  -25.8308  -46.1233 H         1 UNK         0.1121 
     67 H67        16.7020  -27.1054  -43.3617 H         1 UNK         0.0849 
     68 H68        17.5303  -27.5901  -44.8108 H         1 UNK         0.0849 
     69 H69        16.2425  -28.9444  -46.9017 H         1 UNK         0.0865 
     70 H70        15.2097  -30.2075  -46.2802 H         1 UNK         0.0865 
     71 H71        16.0298  -31.0725  -43.7792 H         1 UNK         0.1346 
     72 H72        20.2315  -31.9127  -43.7665 H         1 UNK         0.1412 
     73 H73        18.5517  -29.4749  -46.8637 H         1 UNK         0.1426 
     74 H74        21.6330  -31.2086  -45.5500 H         1 UNK         0.0716 
     75 H75        20.8722  -30.8079  -47.0650 H         1 UNK         0.0716 
     76 H76        22.2090  -29.1037  -43.5850 H         1 UNK         0.0695 
     77 H77        20.4882  -28.8277  -43.7231 H         1 UNK         0.0695 
     78 H78        22.6866  -26.7253  -44.0151 H         1 UNK         0.0983 
     79 H79        20.0051  -26.5997  -44.9996 H         1 UNK         0.3095 
     80 H80        19.6436  -23.1220  -45.1124 H         1 UNK         0.0454 
     81 H81        20.6698  -24.7928  -47.4698 H         1 UNK         0.0851 
     82 H82        19.7504  -23.2912  -47.5890 H         1 UNK         0.0851 
     83 H83        21.3649  -23.2820  -46.9021 H         1 UNK         0.0851 
     84 H84        18.4431  -25.3312  -46.5539 H         1 UNK         0.2976 
     85 H85        23.4667  -26.6256  -41.9385 H         1 UNK         0.3116 
     86 H86        21.8754  -27.0136  -39.5873 H         1 UNK         0.0646 
     87 H87        21.1370  -24.6695  -40.0487 H         1 UNK         0.0847 
     88 H88        22.8114  -24.1515  -40.2314 H         1 UNK         0.0847 
     89 H89        22.2182  -24.6900  -38.6656 H         1 UNK         0.0847 
     90 H90        23.2636  -27.9092  -38.2267 H         1 UNK         0.3040 
     91 H91        25.0353  -28.8190  -37.2963 H         1 UNK         0.1015 
     92 H92        27.1525  -27.5653  -36.9885 H         1 UNK         0.0786 
     93 H93        25.7647  -26.5540  -36.6232 H         1 UNK         0.0786 
     94 H94        26.6386  -26.3412  -38.1365 H         1 UNK         0.0786 
     95 H95        26.3233  -27.3351  -40.2622 H         1 UNK         0.3172 
     96 H96        27.7522  -29.7635  -41.1272 H         1 UNK         0.0595 
     97 H97        27.2767  -27.0634  -42.5118 H         1 UNK         0.0839 
     98 H98        28.2980  -28.3580  -43.1225 H         1 UNK         0.0839 
     99 H99        28.7346  -27.5297  -41.6359 H         1 UNK         0.0839 
    100 H100       26.8633  -31.2650  -42.3786 H         1 UNK         0.2998 
    101 H101       25.4877  -32.5329  -43.5393 H         1 UNK         0.0822 
    102 H102       25.8296  -30.8058  -45.3334 H         1 UNK         0.0787 
    103 H103       24.2700  -31.5990  -45.4638 H         1 UNK         0.0787 
    104 H104       24.3670  -29.9761  -44.8030 H         1 UNK         0.0787 
    105 H105       24.5096  -31.3355  -40.8959 H         1 UNK         0.3055 
    106 H106       21.6574  -31.1620  -41.0254 H         1 UNK         0.1106 
    107 H107       22.9942  -30.1232  -39.2075 H         1 UNK         0.0828 
    108 H108       21.8388  -31.2523  -38.5231 H         1 UNK         0.0828 
    109 H109       23.5332  -31.7076  -38.6545 H         1 UNK         0.0828 
    110 H110       20.0647  -32.6090  -40.3352 H         1 UNK         0.2931 
    111 H111       20.5626  -35.3926  -40.9677 H         1 UNK         0.0412 
    112 H112       20.6210  -35.1968  -36.9551 H         1 UNK         0.3472 
    113 H113       20.8991  -33.7916  -37.9528 H         1 UNK         0.3472 
    114 H114       17.9491  -34.0110  -40.1767 H         1 UNK         0.0970 
    115 H115       18.0911  -35.6485  -40.7513 H         1 UNK         0.0970 
    116 H116       18.5880  -31.9105  -41.5872 H         1 UNK         0.0612 
    117 H117       16.9383  -32.3350  -41.9806 H         1 UNK         0.0612 
@<TRIPOS>BOND
     1    1    2 1    
     2    1   62 1    
     3    1   63 1    
     4    1   64 1    
     5    2    3 2    
     6    2    4 am   BACKBONE|DICT|INTERRES
     7    4    5 1    
     8    4   65 1    
     9    5    6 1    
    10    5   25 1    
    11    5   66 1    
    12    6    7 1    
    13    6   67 1    
    14    6   68 1    
    15    7    8 1    
    16    8    9 1    
    17    8   69 1    
    18    8   70 1    
    19    9   10 ar   
    20    9   14 ar   
    21   10   11 ar   
    22   10   71 1    
    23   11   12 ar   
    24   11   61 1    
    25   12   13 ar   
    26   12   72 1    
    27   13   14 ar   
    28   13   15 1    
    29   14   73 1    
    30   15   16 1    
    31   15   74 1    
    32   15   75 1    
    33   16   17 1    
    34   17   18 1    
    35   17   76 1    
    36   17   77 1    
    37   18   19 1    
    38   18   27 1    
    39   18   78 1    
    40   19   20 am   BACKBONE|DICT|INTERRES
    41   19   79 1    
    42   20   21 2    
    43   20   22 1    
    44   22   23 1    
    45   22   24 1    
    46   22   80 1    
    47   23   81 1    
    48   23   82 1    
    49   23   83 1    
    50   24   25 am   BACKBONE|DICT|INTERRES
    51   24   84 1    
    52   25   26 2    
    53   27   28 2    
    54   27   29 am   BACKBONE|DICT|INTERRES
    55   29   30 1    
    56   29   85 1    
    57   30   31 1    
    58   30   32 1    
    59   30   86 1    
    60   31   87 1    
    61   31   88 1    
    62   31   89 1    
    63   32   33 2    
    64   32   34 am   BACKBONE|DICT|INTERRES
    65   34   35 1    
    66   34   90 1    
    67   35   36 1    
    68   35   37 1    
    69   35   91 1    
    70   36   92 1    
    71   36   93 1    
    72   36   94 1    
    73   37   38 2    
    74   37   39 am   BACKBONE|DICT|INTERRES
    75   39   40 1    
    76   39   95 1    
    77   40   41 1    
    78   40   42 1    
    79   40   96 1    
    80   41   97 1    
    81   41   98 1    
    82   41   99 1    
    83   42   43 2    
    84   42   44 am   BACKBONE|DICT|INTERRES
    85   44   45 1    
    86   44  100 1    
    87   45   46 1    
    88   45   47 1    
    89   45  101 1    
    90   46  102 1    
    91   46  103 1    
    92   46  104 1    
    93   47   48 2    
    94   47   49 am   BACKBONE|DICT|INTERRES
    95   49   50 1    
    96   49  105 1    
    97   50   51 1    
    98   50   52 1    
    99   50  106 1    
   100   51  107 1    
   101   51  108 1    
   102   51  109 1    
   103   52   53 2    
   104   52   54 am   BACKBONE|DICT|INTERRES
   105   54   55 1    
   106   54  110 1    
   107   55   56 1    
   108   55   59 1    
   109   55  111 1    
   110   56   57 am   BACKBONE|DICT|INTERRES
   111   56   58 2    
   112   57  112 1    
   113   57  113 1    
   114   59   60 1    
   115   59  114 1    
   116   59  115 1    
   117   60   61 1    
   118   61  116 1    
   119   61  117 1    
@<TRIPOS>SUBSTRUCTURE
     1 UNK         1 GROUP             0       ****    0 ROOT    
