@<TRIPOS>MOLECULE
3R8
117   119    1
SMALL
USER_CHARGES


@<TRIPOS>ATOM
      1 CA         13.9902  -23.8083  -45.8652 C.3       0 UNK        -0.2013 
      2 C          15.4873  -23.6071  -45.6832 C.2       0 UNK         0.4866 
      3 O          15.9139  -22.5350  -45.2523 O.2       0 UNK        -0.5176 
      4 N          16.2888  -24.6256  -46.0168 N.am      1 UNK        -0.4884 
      5 CA         17.7433  -24.6447  -45.8337 C.3       1 UNK         0.0853 
      6 C6         18.4158  -25.7096  -46.7404 C.3       10 UNK        -0.0849 
      7 S7         17.7747  -27.4062  -46.5073 S.3       10 UNK        -0.2776 
      8 C8         19.1479  -28.1594  -45.5855 C.3       10 UNK         0.0316 
      9 C9         18.6975  -29.4158  -44.8612 C.ar      10 UNK        -0.0863 
     10 C10        18.8276  -30.6702  -45.4649 C.ar      10 UNK        -0.1009 
     11 C11        18.4295  -31.8265  -44.7870 C.ar      10 UNK        -0.0712 
     12 C12        17.9179  -31.7204  -43.4894 C.ar      10 UNK        -0.0894 
     13 C13        17.7850  -30.4711  -42.8756 C.ar      10 UNK        -0.0745 
     14 C14        18.1574  -29.3207  -43.5757 C.ar      10 UNK        -0.0972 
     15 C15        17.2258  -30.3695  -41.4639 C.3       10 UNK         0.0209 
     16 S16        18.5535  -30.2213  -40.2229 S.3       10 UNK        -0.2568 
     17 C17        18.7452  -28.4137  -40.0634 C.3       10 UNK        -0.0983 
     18 CA         19.9179  -27.8432  -40.9010 C.3       3 UNK         0.0876 
     19 N          19.6235  -26.4798  -41.3578 N.am      3 UNK        -0.4424 
     20 C          20.3177  -25.8120  -42.2862 C.2       2 UNK         0.4918 
     21 O          21.3082  -26.2657  -42.8623 O.2       2 UNK        -0.4875 
     22 CA         19.8330  -24.3888  -42.6048 C.3       2 UNK         0.0481 
     23 CB         20.9637  -23.3615  -42.4345 C.3       2 UNK        -0.1831 
     24 N          19.2965  -24.3037  -43.9628 N.am      2 UNK        -0.4498 
     25 C          18.1194  -24.8178  -44.3443 C.2       1 UNK         0.5027 
     26 O          17.3577  -25.4143  -43.5770 O.2       1 UNK        -0.4969 
     27 C          21.2737  -27.9488  -40.1700 C.2       3 UNK         0.5005 
     28 O          21.9421  -28.9782  -40.2736 O.2       3 UNK        -0.5279 
     29 N          21.6831  -26.8668  -39.4899 N.am      4 UNK        -0.4463 
     30 CA         22.9965  -26.7332  -38.8553 C.3       4 UNK         0.0283 
     31 CB         23.0116  -25.4912  -37.9502 C.3       4 UNK        -0.1875 
     32 C          24.1440  -26.6725  -39.8779 C.2       4 UNK         0.4949 
     33 O          25.1787  -27.3002  -39.6575 O.2       4 UNK        -0.5039 
     34 N          23.9319  -25.9545  -40.9919 N.am      5 UNK        -0.4663 
     35 CA         24.8861  -25.8567  -42.1032 C.3       5 UNK         0.0242 
     36 CB         24.5002  -24.6902  -43.0251 C.3       5 UNK        -0.1982 
     37 C          24.9788  -27.1667  -42.9012 C.2       5 UNK         0.5017 
     38 O          26.0688  -27.5359  -43.3376 O.2       5 UNK        -0.5012 
     39 N          23.8414  -27.8641  -43.0331 N.am      6 UNK        -0.4439 
     40 CA         23.7401  -29.2112  -43.6003 C.3       6 UNK         0.0297 
     41 CB         22.2677  -29.5041  -43.9341 C.3       6 UNK        -0.2006 
     42 C          24.3097  -30.3147  -42.6858 C.2       6 UNK         0.4892 
     43 O          24.4047  -31.4557  -43.1360 O.2       6 UNK        -0.5089 
     44 N          24.6434  -29.9770  -41.4290 N.am      7 UNK        -0.4243 
     45 CA         25.1420  -30.8553  -40.3641 C.3       7 UNK         0.0196 
     46 CB         26.5611  -31.3632  -40.6955 C.3       7 UNK        -0.2007 
     47 C          24.1525  -31.9897  -40.0423 C.2       7 UNK         0.5020 
     48 O          24.5356  -33.1607  -40.0182 O.2       7 UNK        -0.5147 
     49 N          22.8754  -31.6179  -39.8638 N.am      8 UNK        -0.4734 
     50 CA         21.7155  -32.4997  -39.6644 C.3       8 UNK         0.0238 
     51 CB         21.8142  -33.2484  -38.3183 C.3       8 UNK        -0.1912 
     52 C          21.4576  -33.4452  -40.8565 C.2       8 UNK         0.5038 
     53 O          20.8818  -34.5194  -40.6756 O.2       8 UNK        -0.5046 
     54 N          21.9019  -33.0271  -42.0491 N.am      9 UNK        -0.4200 
     55 CA         21.9302  -33.7982  -43.2985 C.3       9 UNK         0.0839 
     56 C          22.9928  -34.9403  -43.3248 C.2       9 UNK         0.5513 
     57 N          23.9386  -34.9971  -42.3929 N.am      9 UNK        -0.7519 
     58 O          22.9785  -35.7827  -44.2187 O.2       9 UNK        -0.4960 
     59 C59        20.5146  -34.2534  -43.7685 C.3       10 UNK        -0.0876 
     60 S60        20.2106  -33.8472  -45.5216 S.3       10 UNK        -0.2414 
     61 C61        18.5151  -33.1847  -45.4717 C.3       10 UNK         0.0169 
     62 H62        13.7572  -24.7947  -46.2661 H         1 UNK         0.0903 
     63 H63        13.4789  -23.7016  -44.9088 H         1 UNK         0.0903 
     64 H64        13.5914  -23.0609  -46.5507 H         1 UNK         0.0903 
     65 H65        15.8886  -25.5001  -46.3276 H         1 UNK         0.3096 
     66 H66        18.1203  -23.6674  -46.1454 H         1 UNK         0.1121 
     67 H67        19.5002  -25.6980  -46.6135 H         1 UNK         0.0849 
     68 H68        18.2505  -25.4417  -47.7852 H         1 UNK         0.0849 
     69 H69        19.9639  -28.3858  -46.2737 H         1 UNK         0.0865 
     70 H70        19.5470  -27.4487  -44.8605 H         1 UNK         0.0865 
     71 H71        19.2308  -30.7480  -46.4655 H         1 UNK         0.1346 
     72 H72        17.6119  -32.6114  -42.9585 H         1 UNK         0.1412 
     73 H73        18.0358  -28.3486  -43.1171 H         1 UNK         0.1426 
     74 H74        16.5299  -29.5328  -41.3914 H         1 UNK         0.0716 
     75 H75        16.6407  -31.2609  -41.2325 H         1 UNK         0.0716 
     76 H76        18.8574  -28.1665  -39.0058 H         1 UNK         0.0695 
     77 H77        17.8035  -27.9514  -40.3624 H         1 UNK         0.0695 
     78 H78        20.0224  -28.4474  -41.8022 H         1 UNK         0.0983 
     79 H79        18.8104  -26.0367  -40.9539 H         1 UNK         0.3095 
     80 H80        19.0399  -24.1214  -41.9029 H         1 UNK         0.0454 
     81 H81        20.5860  -22.3431  -42.5261 H         1 UNK         0.0851 
     82 H82        21.7461  -23.4908  -43.1813 H         1 UNK         0.0851 
     83 H83        21.4290  -23.4438  -41.4514 H         1 UNK         0.0851 
     84 H84        19.8862  -23.8572  -44.6506 H         1 UNK         0.2976 
     85 H85        21.0654  -26.0697  -39.4407 H         1 UNK         0.3116 
     86 H86        23.1575  -27.6127  -38.2278 H         1 UNK         0.0646 
     87 H87        22.2537  -25.5594  -37.1696 H         1 UNK         0.0847 
     88 H88        23.9765  -25.3850  -37.4523 H         1 UNK         0.0847 
     89 H89        22.8339  -24.5738  -38.5127 H         1 UNK         0.0847 
     90 H90        23.0405  -25.4981  -41.1148 H         1 UNK         0.3040 
     91 H91        25.8743  -25.6499  -41.6855 H         1 UNK         0.1015 
     92 H92        23.5654  -24.8847  -43.5509 H         1 UNK         0.0786 
     93 H93        25.2669  -24.5292  -43.7841 H         1 UNK         0.0786 
     94 H94        24.3932  -23.7579  -42.4704 H         1 UNK         0.0786 
     95 H95        22.9794  -27.4364  -42.7101 H         1 UNK         0.3172 
     96 H96        24.3109  -29.2309  -44.5308 H         1 UNK         0.0595 
     97 H97        21.6558  -29.5787  -43.0356 H         1 UNK         0.0839 
     98 H98        22.1661  -30.4481  -44.4714 H         1 UNK         0.0839 
     99 H99        21.8439  -28.7256  -44.5672 H         1 UNK         0.0839 
    100 H100       24.4917  -29.0159  -41.1527 H         1 UNK         0.2998 
    101 H101       25.2106  -30.2417  -39.4644 H         1 UNK         0.0822 
    102 H102       26.9755  -31.9330  -39.8630 H         1 UNK         0.0787 
    103 H103       26.5652  -32.0155  -41.5695 H         1 UNK         0.0787 
    104 H104       27.2414  -30.5346  -40.8922 H         1 UNK         0.0787 
    105 H105       22.6475  -30.6265  -39.9567 H         1 UNK         0.3055 
    106 H106       20.8467  -31.8446  -39.6103 H         1 UNK         0.1106 
    107 H107       21.9906  -32.5588  -37.4929 H         1 UNK         0.0828 
    108 H108       20.8886  -33.7822  -38.0995 H         1 UNK         0.0828 
    109 H109       22.6190  -33.9840  -38.3206 H         1 UNK         0.0828 
    110 H110       22.4181  -32.1592  -42.0784 H         1 UNK         0.2931 
    111 H111       22.3085  -33.0736  -44.0202 H         1 UNK         0.0412 
    112 H112       24.6216  -35.7365  -42.4326 H         1 UNK         0.3472 
    113 H113       23.9936  -34.3023  -41.6566 H         1 UNK         0.3472 
    114 H114       19.7435  -33.7761  -43.1658 H         1 UNK         0.0970 
    115 H115       20.3621  -35.3237  -43.6175 H         1 UNK         0.0970 
    116 H116       17.8613  -33.9079  -44.9815 H         1 UNK         0.0612 
    117 H117       18.1487  -33.0920  -46.4950 H         1 UNK         0.0612 
@<TRIPOS>BOND
     1    1    2 1    
     2    1   62 1    
     3    1   63 1    
     4    1   64 1    
     5    2    3 2    
     6    2    4 am   BACKBONE|DICT|INTERRES
     7    4    5 1    
     8    4   65 1    
     9    5    6 1    
    10    5   25 1    
    11    5   66 1    
    12    6    7 1    
    13    6   67 1    
    14    6   68 1    
    15    7    8 1    
    16    8    9 1    
    17    8   69 1    
    18    8   70 1    
    19    9   10 ar   
    20    9   14 ar   
    21   10   11 ar   
    22   10   71 1    
    23   11   12 ar   
    24   11   61 1    
    25   12   13 ar   
    26   12   72 1    
    27   13   14 ar   
    28   13   15 1    
    29   14   73 1    
    30   15   16 1    
    31   15   74 1    
    32   15   75 1    
    33   16   17 1    
    34   17   18 1    
    35   17   76 1    
    36   17   77 1    
    37   18   19 1    
    38   18   27 1    
    39   18   78 1    
    40   19   20 am   BACKBONE|DICT|INTERRES
    41   19   79 1    
    42   20   21 2    
    43   20   22 1    
    44   22   23 1    
    45   22   24 1    
    46   22   80 1    
    47   23   81 1    
    48   23   82 1    
    49   23   83 1    
    50   24   25 am   BACKBONE|DICT|INTERRES
    51   24   84 1    
    52   25   26 2    
    53   27   28 2    
    54   27   29 am   BACKBONE|DICT|INTERRES
    55   29   30 1    
    56   29   85 1    
    57   30   31 1    
    58   30   32 1    
    59   30   86 1    
    60   31   87 1    
    61   31   88 1    
    62   31   89 1    
    63   32   33 2    
    64   32   34 am   BACKBONE|DICT|INTERRES
    65   34   35 1    
    66   34   90 1    
    67   35   36 1    
    68   35   37 1    
    69   35   91 1    
    70   36   92 1    
    71   36   93 1    
    72   36   94 1    
    73   37   38 2    
    74   37   39 am   BACKBONE|DICT|INTERRES
    75   39   40 1    
    76   39   95 1    
    77   40   41 1    
    78   40   42 1    
    79   40   96 1    
    80   41   97 1    
    81   41   98 1    
    82   41   99 1    
    83   42   43 2    
    84   42   44 am   BACKBONE|DICT|INTERRES
    85   44   45 1    
    86   44  100 1    
    87   45   46 1    
    88   45   47 1    
    89   45  101 1    
    90   46  102 1    
    91   46  103 1    
    92   46  104 1    
    93   47   48 2    
    94   47   49 am   BACKBONE|DICT|INTERRES
    95   49   50 1    
    96   49  105 1    
    97   50   51 1    
    98   50   52 1    
    99   50  106 1    
   100   51  107 1    
   101   51  108 1    
   102   51  109 1    
   103   52   53 2    
   104   52   54 am   BACKBONE|DICT|INTERRES
   105   54   55 1    
   106   54  110 1    
   107   55   56 1    
   108   55   59 1    
   109   55  111 1    
   110   56   57 am   BACKBONE|DICT|INTERRES
   111   56   58 2    
   112   57  112 1    
   113   57  113 1    
   114   59   60 1    
   115   59  114 1    
   116   59  115 1    
   117   60   61 1    
   118   61  116 1    
   119   61  117 1    
@<TRIPOS>SUBSTRUCTURE
     1 UNK         1 GROUP             0       ****    0 ROOT    
