@<TRIPOS>MOLECULE
3R8
117   119    1
SMALL
USER_CHARGES


@<TRIPOS>ATOM
      1 CA         15.3109  -24.0475  -41.4029 C.3       0 UNK        -0.2013 
      2 C          15.9039  -24.2354  -42.7914 C.2       0 UNK         0.4866 
      3 O          15.7758  -23.3492  -43.6374 O.2       0 UNK        -0.5176 
      4 N          16.5431  -25.3858  -43.0349 N.am      1 UNK        -0.4884 
      5 CA         17.2234  -25.7128  -44.2928 C.3       1 UNK         0.0853 
      6 C6         17.5495  -27.2230  -44.4018 C.3       10 UNK        -0.0849 
      7 S7         16.1221  -28.3446  -44.2059 S.3       10 UNK        -0.2776 
      8 C8         16.7901  -29.6149  -43.0698 C.3       10 UNK         0.0316 
      9 C9         17.6166  -30.7049  -43.7581 C.ar      10 UNK        -0.0863 
     10 C10        17.3426  -32.0525  -43.5013 C.ar      10 UNK        -0.1009 
     11 C11        18.1110  -33.0625  -44.0884 C.ar      10 UNK        -0.0712 
     12 C12        19.1758  -32.7147  -44.9270 C.ar      10 UNK        -0.0894 
     13 C13        19.4791  -31.3758  -45.1908 C.ar      10 UNK        -0.0745 
     14 C14        18.6786  -30.3845  -44.6112 C.ar      10 UNK        -0.0972 
     15 C15        20.6759  -31.0636  -46.1005 C.3       10 UNK         0.0209 
     16 S16        21.1256  -29.2980  -46.3109 S.3       10 UNK        -0.2568 
     17 C17        21.7517  -28.8875  -44.6469 C.3       10 UNK        -0.0983 
     18 CA         22.1947  -27.4124  -44.4371 C.3       3 UNK         0.0876 
     19 N          21.2717  -26.4555  -45.0585 N.am      3 UNK        -0.4424 
     20 C          21.5495  -25.1827  -45.3753 C.2       2 UNK         0.4918 
     21 O          22.6443  -24.6554  -45.1830 O.2       2 UNK        -0.4875 
     22 CA         20.4046  -24.3485  -45.9909 C.3       2 UNK         0.0481 
     23 CB         20.5713  -24.2599  -47.5161 C.3       2 UNK        -0.1831 
     24 N          19.0630  -24.8622  -45.6793 N.am      2 UNK        -0.4498 
     25 C          18.5399  -24.9195  -44.4452 C.2       1 UNK         0.5027 
     26 O          19.1159  -24.4755  -43.4493 O.2       1 UNK        -0.4969 
     27 C          22.4029  -27.1694  -42.9220 C.2       3 UNK         0.5005 
     28 O          23.1516  -27.9342  -42.3068 O.2       3 UNK        -0.5279 
     29 N          21.6942  -26.1930  -42.3266 N.am      4 UNK        -0.4463 
     30 CA         21.6507  -25.8982  -40.8888 C.3       4 UNK         0.0283 
     31 CB         20.8392  -24.6162  -40.6438 C.3       4 UNK        -0.1875 
     32 C          23.0404  -25.7885  -40.2409 C.2       4 UNK         0.4949 
     33 O          23.8483  -24.9602  -40.6636 O.2       4 UNK        -0.5039 
     34 N          23.2797  -26.6577  -39.2488 N.am      5 UNK        -0.4663 
     35 CA         24.5246  -26.8504  -38.4914 C.3       5 UNK         0.0242 
     36 CB         24.9171  -25.5655  -37.7304 C.3       5 UNK        -0.1982 
     37 C          25.7036  -27.4222  -39.3084 C.2       5 UNK         0.5017 
     38 O          26.7998  -27.5331  -38.7567 O.2       5 UNK        -0.5012 
     39 N          25.4751  -27.7957  -40.5755 N.am      6 UNK        -0.4439 
     40 CA         26.4733  -28.3828  -41.4682 C.3       6 UNK         0.0297 
     41 CB         26.5481  -27.5709  -42.7734 C.3       6 UNK        -0.2006 
     42 C          26.1577  -29.8561  -41.7568 C.2       6 UNK         0.4892 
     43 O          27.0440  -30.6956  -41.5923 O.2       6 UNK        -0.5089 
     44 N          24.9223  -30.1513  -42.1883 N.am      7 UNK        -0.4243 
     45 CA         24.5197  -31.4837  -42.6537 C.3       7 UNK         0.0196 
     46 CB         25.0627  -31.7255  -44.0800 C.3       7 UNK        -0.2007 
     47 C          23.0017  -31.7198  -42.5727 C.2       7 UNK         0.5020 
     48 O          22.4860  -32.5534  -43.3171 O.2       7 UNK        -0.5147 
     49 N          22.2931  -31.0061  -41.6859 N.am      8 UNK        -0.4734 
     50 CA         20.8266  -31.0312  -41.5502 C.3       8 UNK         0.0238 
     51 CB         20.3623  -29.7401  -40.8497 C.3       8 UNK        -0.1912 
     52 C          20.2464  -32.3010  -40.8878 C.2       8 UNK         0.5038 
     53 O          19.3241  -32.1966  -40.0769 O.2       8 UNK        -0.5046 
     54 N          20.7892  -33.4725  -41.2405 N.am      9 UNK        -0.4200 
     55 CA         20.3725  -34.8100  -40.7852 C.3       9 UNK         0.0839 
     56 C          20.4664  -35.0443  -39.2447 C.2       9 UNK         0.5513 
     57 N          21.2948  -34.3032  -38.5184 N.am      9 UNK        -0.7519 
     58 O          19.8122  -35.9306  -38.7003 O.2       9 UNK        -0.4960 
     59 C59        19.0071  -35.2363  -41.3987 C.3       10 UNK        -0.0876 
     60 S60        19.1362  -35.5120  -43.1991 S.3       10 UNK        -0.2414 
     61 C61        17.7551  -34.5276  -43.8647 C.3       10 UNK         0.0169 
     62 H62        14.2355  -23.8861  -41.4725 H         1 UNK         0.0903 
     63 H63        15.4829  -24.9141  -40.7649 H         1 UNK         0.0903 
     64 H64        15.7559  -23.1777  -40.9203 H         1 UNK         0.0903 
     65 H65        16.6221  -26.0770  -42.3034 H         1 UNK         0.3096 
     66 H66        16.5618  -25.4353  -45.1169 H         1 UNK         0.1121 
     67 H67        18.3121  -27.4871  -43.6657 H         1 UNK         0.0849 
     68 H68        17.9760  -27.4339  -45.3842 H         1 UNK         0.0849 
     69 H69        17.3905  -29.1424  -42.2920 H         1 UNK         0.0865 
     70 H70        15.9417  -30.0658  -42.5529 H         1 UNK         0.0865 
     71 H71        16.5233  -32.3186  -42.8473 H         1 UNK         0.1346 
     72 H72        19.7738  -33.4957  -45.3769 H         1 UNK         0.1412 
     73 H73        18.8973  -29.3544  -44.8142 H         1 UNK         0.1426 
     74 H74        20.4655  -31.4725  -47.0895 H         1 UNK         0.0716 
     75 H75        21.5523  -31.5975  -45.7299 H         1 UNK         0.0716 
     76 H76        22.5934  -29.5505  -44.4458 H         1 UNK         0.0695 
     77 H77        20.9834  -29.1555  -43.9231 H         1 UNK         0.0695 
     78 H78        23.1700  -27.2846  -44.9119 H         1 UNK         0.0983 
     79 H79        20.3650  -26.8192  -45.3047 H         1 UNK         0.3095 
     80 H80        20.4793  -23.3391  -45.5809 H         1 UNK         0.0454 
     81 H81        20.4918  -25.2391  -47.9901 H         1 UNK         0.0851 
     82 H82        21.5479  -23.8504  -47.7786 H         1 UNK         0.0851 
     83 H83        19.8202  -23.6074  -47.9615 H         1 UNK         0.0851 
     84 H84        18.5370  -25.2423  -46.4541 H         1 UNK         0.2976 
     85 H85        21.1023  -25.6156  -42.9091 H         1 UNK         0.3116 
     86 H86        21.1126  -26.7201  -40.4137 H         1 UNK         0.0646 
     87 H87        19.7944  -24.7478  -40.9236 H         1 UNK         0.0847 
     88 H88        21.2371  -23.7729  -41.2098 H         1 UNK         0.0847 
     89 H89        20.8527  -24.3369  -39.5893 H         1 UNK         0.0847 
     90 H90        22.5361  -27.2975  -39.0039 H         1 UNK         0.3040 
     91 H91        24.2986  -27.6117  -37.7429 H         1 UNK         0.1015 
     92 H92        25.2408  -24.7743  -38.4071 H         1 UNK         0.0786 
     93 H93        25.7403  -25.7547  -37.0403 H         1 UNK         0.0786 
     94 H94        24.0846  -25.1833  -37.1397 H         1 UNK         0.0786 
     95 H95        24.5422  -27.6793  -40.9608 H         1 UNK         0.3172 
     96 H96        27.4630  -28.3465  -41.0084 H         1 UNK         0.0595 
     97 H97        25.6010  -27.5651  -43.3126 H         1 UNK         0.0839 
     98 H98        27.3015  -27.9840  -43.4454 H         1 UNK         0.0839 
     99 H99        26.8235  -26.5347  -42.5763 H         1 UNK         0.0839 
    100 H100       24.2436  -29.3991  -42.2996 H         1 UNK         0.2998 
    101 H101       24.9631  -32.2296  -41.9907 H         1 UNK         0.0822 
    102 H102       26.1476  -31.6299  -44.1197 H         1 UNK         0.0787 
    103 H103       24.8231  -32.7297  -44.4322 H         1 UNK         0.0787 
    104 H104       24.6386  -31.0185  -44.7938 H         1 UNK         0.0787 
    105 H105       22.7884  -30.3710  -41.0771 H         1 UNK         0.3055 
    106 H106       20.4051  -31.0245  -42.5549 H         1 UNK         0.1106 
    107 H107       20.7804  -29.6526  -39.8467 H         1 UNK         0.0828 
    108 H108       19.2764  -29.7072  -40.7551 H         1 UNK         0.0828 
    109 H109       20.6501  -28.8588  -41.4169 H         1 UNK         0.0828 
    110 H110       21.5095  -33.4463  -41.9560 H         1 UNK         0.2931 
    111 H111       21.1261  -35.4885  -41.1867 H         1 UNK         0.0412 
    112 H112       21.8425  -33.5773  -38.9516 H         1 UNK         0.3472 
    113 H113       21.3618  -34.4647  -37.5256 H         1 UNK         0.3472 
    114 H114       18.2363  -34.4967  -41.1768 H         1 UNK         0.0970 
    115 H115       18.6564  -36.1750  -40.9669 H         1 UNK         0.0970 
    116 H116       17.4631  -34.9560  -44.8243 H         1 UNK         0.0612 
    117 H117       16.8875  -34.6310  -43.2114 H         1 UNK         0.0612 
@<TRIPOS>BOND
     1    1    2 1    
     2    1   62 1    
     3    1   63 1    
     4    1   64 1    
     5    2    3 2    
     6    2    4 am   BACKBONE|DICT|INTERRES
     7    4    5 1    
     8    4   65 1    
     9    5    6 1    
    10    5   25 1    
    11    5   66 1    
    12    6    7 1    
    13    6   67 1    
    14    6   68 1    
    15    7    8 1    
    16    8    9 1    
    17    8   69 1    
    18    8   70 1    
    19    9   10 ar   
    20    9   14 ar   
    21   10   11 ar   
    22   10   71 1    
    23   11   12 ar   
    24   11   61 1    
    25   12   13 ar   
    26   12   72 1    
    27   13   14 ar   
    28   13   15 1    
    29   14   73 1    
    30   15   16 1    
    31   15   74 1    
    32   15   75 1    
    33   16   17 1    
    34   17   18 1    
    35   17   76 1    
    36   17   77 1    
    37   18   19 1    
    38   18   27 1    
    39   18   78 1    
    40   19   20 am   BACKBONE|DICT|INTERRES
    41   19   79 1    
    42   20   21 2    
    43   20   22 1    
    44   22   23 1    
    45   22   24 1    
    46   22   80 1    
    47   23   81 1    
    48   23   82 1    
    49   23   83 1    
    50   24   25 am   BACKBONE|DICT|INTERRES
    51   24   84 1    
    52   25   26 2    
    53   27   28 2    
    54   27   29 am   BACKBONE|DICT|INTERRES
    55   29   30 1    
    56   29   85 1    
    57   30   31 1    
    58   30   32 1    
    59   30   86 1    
    60   31   87 1    
    61   31   88 1    
    62   31   89 1    
    63   32   33 2    
    64   32   34 am   BACKBONE|DICT|INTERRES
    65   34   35 1    
    66   34   90 1    
    67   35   36 1    
    68   35   37 1    
    69   35   91 1    
    70   36   92 1    
    71   36   93 1    
    72   36   94 1    
    73   37   38 2    
    74   37   39 am   BACKBONE|DICT|INTERRES
    75   39   40 1    
    76   39   95 1    
    77   40   41 1    
    78   40   42 1    
    79   40   96 1    
    80   41   97 1    
    81   41   98 1    
    82   41   99 1    
    83   42   43 2    
    84   42   44 am   BACKBONE|DICT|INTERRES
    85   44   45 1    
    86   44  100 1    
    87   45   46 1    
    88   45   47 1    
    89   45  101 1    
    90   46  102 1    
    91   46  103 1    
    92   46  104 1    
    93   47   48 2    
    94   47   49 am   BACKBONE|DICT|INTERRES
    95   49   50 1    
    96   49  105 1    
    97   50   51 1    
    98   50   52 1    
    99   50  106 1    
   100   51  107 1    
   101   51  108 1    
   102   51  109 1    
   103   52   53 2    
   104   52   54 am   BACKBONE|DICT|INTERRES
   105   54   55 1    
   106   54  110 1    
   107   55   56 1    
   108   55   59 1    
   109   55  111 1    
   110   56   57 am   BACKBONE|DICT|INTERRES
   111   56   58 2    
   112   57  112 1    
   113   57  113 1    
   114   59   60 1    
   115   59  114 1    
   116   59  115 1    
   117   60   61 1    
   118   61  116 1    
   119   61  117 1    
@<TRIPOS>SUBSTRUCTURE
     1 UNK         1 GROUP             0       ****    0 ROOT    
