@<TRIPOS>MOLECULE
3R8
117   119    1
SMALL
USER_CHARGES


@<TRIPOS>ATOM
      1 CA         19.5331  -21.3346  -46.0769 C.3       0 UNK        -0.2013 
      2 C          19.7008  -22.2850  -44.9011 C.2       0 UNK         0.4866 
      3 O          19.4974  -21.8839  -43.7552 O.2       0 UNK        -0.5176 
      4 N          20.0716  -23.5425  -45.1750 N.am      1 UNK        -0.4884 
      5 CA         20.2577  -24.6032  -44.1757 C.3       1 UNK         0.0853 
      6 C6         21.0865  -25.7926  -44.7346 C.3       10 UNK        -0.0849 
      7 S7         20.4590  -26.4326  -46.3269 S.3       10 UNK        -0.2776 
      8 C8         21.4956  -27.9125  -46.5740 C.3       10 UNK         0.0316 
      9 C9         20.8018  -29.1927  -46.1246 C.ar      10 UNK        -0.0863 
     10 C10        21.4122  -30.0491  -45.2010 C.ar      10 UNK        -0.1009 
     11 C11        20.8001  -31.2539  -44.8361 C.ar      10 UNK        -0.0712 
     12 C12        19.5567  -31.5850  -45.3843 C.ar      10 UNK        -0.0894 
     13 C13        18.9205  -30.7219  -46.2791 C.ar      10 UNK        -0.0745 
     14 C14        19.5617  -29.5432  -46.6689 C.ar      10 UNK        -0.0972 
     15 C15        17.5183  -31.0351  -46.7791 C.3       10 UNK         0.0209 
     16 S16        16.2893  -29.8645  -46.1083 S.3       10 UNK        -0.2568 
     17 C17        16.4734  -30.0812  -44.3003 C.3       10 UNK        -0.0983 
     18 CA         17.5106  -29.1080  -43.6680 C.3       3 UNK         0.0876 
     19 N          17.2988  -27.7012  -44.0214 N.am      3 UNK        -0.4424 
     20 C          16.3180  -26.8936  -43.5957 C.2       2 UNK         0.4918 
     21 O          15.3583  -27.2737  -42.9237 O.2       2 UNK        -0.4875 
     22 CA         16.4562  -25.3968  -43.9575 C.3       2 UNK         0.0481 
     23 CB         15.8936  -24.4843  -42.8480 C.3       2 UNK        -0.1831 
     24 N          17.8250  -24.9793  -44.3078 N.am      2 UNK        -0.4498 
     25 C          18.9344  -25.0966  -43.5568 C.2       1 UNK         0.5027 
     26 O          18.9535  -25.6149  -42.4398 O.2       1 UNK        -0.4969 
     27 C          17.7120  -29.3169  -42.1482 C.2       3 UNK         0.5005 
     28 O          17.3097  -30.3499  -41.6098 O.2       3 UNK        -0.5279 
     29 N          18.3347  -28.3333  -41.4813 N.am      4 UNK        -0.4463 
     30 CA         18.5997  -28.3189  -40.0426 C.3       4 UNK         0.0283 
     31 CB         17.4089  -27.6700  -39.3107 C.3       4 UNK        -0.1875 
     32 C          19.9379  -27.6242  -39.7319 C.2       4 UNK         0.4949 
     33 O          20.0863  -27.0379  -38.6585 O.2       4 UNK        -0.5039 
     34 N          20.8912  -27.6933  -40.6686 N.am      5 UNK        -0.4663 
     35 CA         22.2405  -27.1462  -40.5495 C.3       5 UNK         0.0242 
     36 CB         22.2417  -25.6501  -40.9128 C.3       5 UNK        -0.1982 
     37 C          23.1837  -27.9487  -41.4543 C.2       5 UNK         0.5017 
     38 O          22.7133  -28.7737  -42.2411 O.2       5 UNK        -0.5012 
     39 N          24.4906  -27.6833  -41.3136 N.am      6 UNK        -0.4439 
     40 CA         25.6331  -28.4463  -41.8401 C.3       6 UNK         0.0297 
     41 CB         25.5148  -28.7232  -43.3551 C.3       6 UNK        -0.2006 
     42 C          25.8614  -29.7370  -41.0331 C.2       6 UNK         0.4892 
     43 O          25.0049  -30.1363  -40.2428 O.2       6 UNK        -0.5089 
     44 N          27.0252  -30.3701  -41.2302 N.am      7 UNK        -0.4243 
     45 CA         27.5019  -31.5216  -40.4487 C.3       7 UNK         0.0196 
     46 CB         28.8936  -31.9320  -40.9574 C.3       7 UNK        -0.2007 
     47 C          26.5616  -32.7431  -40.4231 C.2       7 UNK         0.5020 
     48 O          26.6039  -33.5141  -39.4640 O.2       7 UNK        -0.5147 
     49 N          25.7378  -32.8996  -41.4662 N.am      8 UNK        -0.4734 
     50 CA         24.7714  -33.9885  -41.5956 C.3       8 UNK         0.0238 
     51 CB         24.5384  -34.2700  -43.0896 C.3       8 UNK        -0.1912 
     52 C          23.4331  -33.7379  -40.8746 C.2       8 UNK         0.5038 
     53 O          22.7561  -34.7220  -40.5719 O.2       8 UNK        -0.5046 
     54 N          23.0531  -32.4709  -40.6378 N.am      9 UNK        -0.4200 
     55 CA         21.7186  -32.0922  -40.1236 C.3       9 UNK         0.0839 
     56 C          21.7378  -31.1142  -38.9170 C.2       9 UNK         0.5513 
     57 N          22.8546  -30.5038  -38.5488 N.am      9 UNK        -0.7519 
     58 O          20.7075  -30.9221  -38.2770 O.2       9 UNK        -0.4960 
     59 C59        20.7704  -31.5742  -41.2424 C.3       10 UNK        -0.0876 
     60 S60        20.4404  -32.8127  -42.5378 S.3       10 UNK        -0.2414 
     61 C61        21.5054  -32.2235  -43.8955 C.3       10 UNK         0.0169 
     62 H62        20.2073  -20.4851  -45.9715 H         1 UNK         0.0903 
     63 H63        19.7469  -21.8209  -47.0286 H         1 UNK         0.0903 
     64 H64        18.5116  -20.9568  -46.1111 H         1 UNK         0.0903 
     65 H65        20.2318  -23.8243  -46.1332 H         1 UNK         0.3096 
     66 H66        20.8219  -24.1629  -43.3513 H         1 UNK         0.1121 
     67 H67        22.1174  -25.4695  -44.8885 H         1 UNK         0.0849 
     68 H68        21.1407  -26.6123  -44.0141 H         1 UNK         0.0849 
     69 H69        21.7247  -28.0014  -47.6368 H         1 UNK         0.0865 
     70 H70        22.4536  -27.7832  -46.0675 H         1 UNK         0.0865 
     71 H71        22.3755  -29.7898  -44.7825 H         1 UNK         0.1346 
     72 H72        19.0741  -32.5086  -45.0949 H         1 UNK         0.1412 
     73 H73        19.0766  -28.8800  -47.3726 H         1 UNK         0.1426 
     74 H74        17.2253  -32.0524  -46.5144 H         1 UNK         0.0716 
     75 H75        17.5029  -30.9827  -47.8685 H         1 UNK         0.0716 
     76 H76        16.7478  -31.1187  -44.1010 H         1 UNK         0.0695 
     77 H77        15.4936  -29.9341  -43.8432 H         1 UNK         0.0695 
     78 H78        18.4872  -29.3497  -44.0798 H         1 UNK         0.0983 
     79 H79        18.0184  -27.2891  -44.5975 H         1 UNK         0.3095 
     80 H80        15.8526  -25.2443  -44.8531 H         1 UNK         0.0454 
     81 H81        14.8348  -24.6808  -42.6750 H         1 UNK         0.0851 
     82 H82        15.9856  -23.4315  -43.1147 H         1 UNK         0.0851 
     83 H83        16.4112  -24.6363  -41.9002 H         1 UNK         0.0851 
     84 H84        17.9354  -24.5640  -45.2228 H         1 UNK         0.2976 
     85 H85        18.5970  -27.4817  -41.9735 H         1 UNK         0.3116 
     86 H86        18.7050  -29.3442  -39.6826 H         1 UNK         0.0646 
     87 H87        16.4780  -28.1961  -39.5224 H         1 UNK         0.0847 
     88 H88        17.2797  -26.6283  -39.6073 H         1 UNK         0.0847 
     89 H89        17.5509  -27.6902  -38.2295 H         1 UNK         0.0847 
     90 H90        20.7430  -28.2464  -41.5030 H         1 UNK         0.3040 
     91 H91        22.5801  -27.2745  -39.5189 H         1 UNK         0.1015 
     92 H92        23.2040  -25.1892  -40.6886 H         1 UNK         0.0786 
     93 H93        21.4835  -25.0991  -40.3560 H         1 UNK         0.0786 
     94 H94        22.0518  -25.5028  -41.9735 H         1 UNK         0.0786 
     95 H95        24.7423  -26.9813  -40.6318 H         1 UNK         0.3172 
     96 H96        26.5071  -27.8124  -41.6828 H         1 UNK         0.0595 
     97 H97        24.7772  -29.4952  -43.5761 H         1 UNK         0.0839 
     98 H98        26.4650  -29.0648  -43.7665 H         1 UNK         0.0839 
     99 H99        25.2328  -27.8241  -43.9030 H         1 UNK         0.0839 
    100 H100       27.6737  -29.9873  -41.9035 H         1 UNK         0.2998 
    101 H101       27.6043  -31.1842  -39.4151 H         1 UNK         0.0822 
    102 H102       29.6082  -31.1135  -40.8678 H         1 UNK         0.0787 
    103 H103       29.2905  -32.7687  -40.3803 H         1 UNK         0.0787 
    104 H104       28.8650  -32.2422  -42.0028 H         1 UNK         0.0787 
    105 H105       25.7717  -32.2174  -42.2096 H         1 UNK         0.3055 
    106 H106       25.1988  -34.8921  -41.1537 H         1 UNK         0.1106 
    107 H107       25.4499  -34.6265  -43.5694 H         1 UNK         0.0828 
    108 H108       23.7780  -35.0394  -43.2326 H         1 UNK         0.0828 
    109 H109       24.2082  -33.3801  -43.6244 H         1 UNK         0.0828 
    110 H110       23.6926  -31.7101  -40.8321 H         1 UNK         0.2931 
    111 H111       21.2454  -32.9838  -39.7086 H         1 UNK         0.0412 
    112 H112       23.7023  -30.5564  -39.1096 H         1 UNK         0.3472 
    113 H113       22.8311  -29.8968  -37.7459 H         1 UNK         0.3472 
    114 H114       19.8019  -31.3021  -40.8198 H         1 UNK         0.0970 
    115 H115       21.1619  -30.6656  -41.6959 H         1 UNK         0.0970 
    116 H116       22.4088  -31.7752  -43.4794 H         1 UNK         0.0612 
    117 H117       21.8284  -33.0876  -44.4771 H         1 UNK         0.0612 
@<TRIPOS>BOND
     1    1    2 1    
     2    1   62 1    
     3    1   63 1    
     4    1   64 1    
     5    2    3 2    
     6    2    4 am   BACKBONE|DICT|INTERRES
     7    4    5 1    
     8    4   65 1    
     9    5    6 1    
    10    5   25 1    
    11    5   66 1    
    12    6    7 1    
    13    6   67 1    
    14    6   68 1    
    15    7    8 1    
    16    8    9 1    
    17    8   69 1    
    18    8   70 1    
    19    9   10 ar   
    20    9   14 ar   
    21   10   11 ar   
    22   10   71 1    
    23   11   12 ar   
    24   11   61 1    
    25   12   13 ar   
    26   12   72 1    
    27   13   14 ar   
    28   13   15 1    
    29   14   73 1    
    30   15   16 1    
    31   15   74 1    
    32   15   75 1    
    33   16   17 1    
    34   17   18 1    
    35   17   76 1    
    36   17   77 1    
    37   18   19 1    
    38   18   27 1    
    39   18   78 1    
    40   19   20 am   BACKBONE|DICT|INTERRES
    41   19   79 1    
    42   20   21 2    
    43   20   22 1    
    44   22   23 1    
    45   22   24 1    
    46   22   80 1    
    47   23   81 1    
    48   23   82 1    
    49   23   83 1    
    50   24   25 am   BACKBONE|DICT|INTERRES
    51   24   84 1    
    52   25   26 2    
    53   27   28 2    
    54   27   29 am   BACKBONE|DICT|INTERRES
    55   29   30 1    
    56   29   85 1    
    57   30   31 1    
    58   30   32 1    
    59   30   86 1    
    60   31   87 1    
    61   31   88 1    
    62   31   89 1    
    63   32   33 2    
    64   32   34 am   BACKBONE|DICT|INTERRES
    65   34   35 1    
    66   34   90 1    
    67   35   36 1    
    68   35   37 1    
    69   35   91 1    
    70   36   92 1    
    71   36   93 1    
    72   36   94 1    
    73   37   38 2    
    74   37   39 am   BACKBONE|DICT|INTERRES
    75   39   40 1    
    76   39   95 1    
    77   40   41 1    
    78   40   42 1    
    79   40   96 1    
    80   41   97 1    
    81   41   98 1    
    82   41   99 1    
    83   42   43 2    
    84   42   44 am   BACKBONE|DICT|INTERRES
    85   44   45 1    
    86   44  100 1    
    87   45   46 1    
    88   45   47 1    
    89   45  101 1    
    90   46  102 1    
    91   46  103 1    
    92   46  104 1    
    93   47   48 2    
    94   47   49 am   BACKBONE|DICT|INTERRES
    95   49   50 1    
    96   49  105 1    
    97   50   51 1    
    98   50   52 1    
    99   50  106 1    
   100   51  107 1    
   101   51  108 1    
   102   51  109 1    
   103   52   53 2    
   104   52   54 am   BACKBONE|DICT|INTERRES
   105   54   55 1    
   106   54  110 1    
   107   55   56 1    
   108   55   59 1    
   109   55  111 1    
   110   56   57 am   BACKBONE|DICT|INTERRES
   111   56   58 2    
   112   57  112 1    
   113   57  113 1    
   114   59   60 1    
   115   59  114 1    
   116   59  115 1    
   117   60   61 1    
   118   61  116 1    
   119   61  117 1    
@<TRIPOS>SUBSTRUCTURE
     1 UNK         1 GROUP             0       ****    0 ROOT    
