@<TRIPOS>MOLECULE
3R8
117   119    1
SMALL
USER_CHARGES


@<TRIPOS>ATOM
      1 CA         13.2286  -22.2692  -43.8374 C.3       0 UNK        -0.2013 
      2 C          14.3393  -23.3093  -43.8647 C.2       0 UNK         0.4866 
      3 O          14.7750  -23.7545  -42.8028 O.2       0 UNK        -0.5176 
      4 N          14.7768  -23.6988  -45.0718 N.am      1 UNK        -0.4884 
      5 CA         15.8760  -24.6266  -45.3810 C.3       1 UNK         0.0853 
      6 C6         15.7949  -25.9708  -44.6038 C.3       10 UNK        -0.0849 
      7 S7         16.4796  -27.3850  -45.5328 S.3       10 UNK        -0.2776 
      8 C8         16.1496  -28.7664  -44.3830 C.3       10 UNK         0.0316 
      9 C9         17.3559  -29.0497  -43.4992 C.ar      10 UNK        -0.0863 
     10 C10        18.2156  -30.1140  -43.7917 C.ar      10 UNK        -0.1009 
     11 C11        19.3679  -30.3271  -43.0273 C.ar      10 UNK        -0.0712 
     12 C12        19.6633  -29.4637  -41.9689 C.ar      10 UNK        -0.0894 
     13 C13        18.8158  -28.3903  -41.6774 C.ar      10 UNK        -0.0745 
     14 C14        17.6431  -28.2163  -42.4162 C.ar      10 UNK        -0.0972 
     15 C15        19.2163  -27.3393  -40.6557 C.3       10 UNK         0.0209 
     16 S16        19.6381  -25.7686  -41.4887 S.3       10 UNK        -0.2568 
     17 C17        21.0860  -26.2477  -42.4918 C.3       10 UNK        -0.0983 
     18 CA         20.7311  -26.7185  -43.9335 C.3       3 UNK         0.0876 
     19 N          20.0380  -25.7360  -44.7663 N.am      3 UNK        -0.4424 
     20 C          20.4728  -24.5365  -45.1706 C.2       2 UNK         0.4918 
     21 O          21.5502  -24.0432  -44.8342 O.2       2 UNK        -0.4875 
     22 CA         19.5604  -23.7653  -46.1436 C.3       2 UNK         0.0481 
     23 CB         20.1285  -23.8403  -47.5703 C.3       2 UNK        -0.1831 
     24 N          18.1768  -24.2593  -46.1529 N.am      2 UNK        -0.4498 
     25 C          17.2563  -23.9465  -45.2297 C.2       1 UNK         0.5027 
     26 O          17.4743  -23.1693  -44.2976 O.2       1 UNK        -0.4969 
     27 C          21.9479  -27.3314  -44.6480 C.2       3 UNK         0.5005 
     28 O          21.8761  -28.4841  -45.0779 O.2       3 UNK        -0.5279 
     29 N          23.0470  -26.5666  -44.7322 N.am      4 UNK        -0.4463 
     30 CA         24.3973  -26.9473  -45.1706 C.3       4 UNK         0.0283 
     31 CB         24.4246  -27.3842  -46.6493 C.3       4 UNK        -0.1875 
     32 C          25.0389  -27.9951  -44.2429 C.2       4 UNK         0.4949 
     33 O          26.0001  -27.6824  -43.5411 O.2       4 UNK        -0.5039 
     34 N          24.4548  -29.1970  -44.1993 N.am      5 UNK        -0.4663 
     35 CA         24.7921  -30.2902  -43.2870 C.3       5 UNK         0.0242 
     36 CB         24.5033  -31.6259  -43.9987 C.3       5 UNK        -0.1982 
     37 C          24.0237  -30.1397  -41.9593 C.2       5 UNK         0.5017 
     38 O          23.3329  -31.0696  -41.5359 O.2       5 UNK        -0.5012 
     39 N          24.1405  -28.9564  -41.3390 N.am      6 UNK        -0.4439 
     40 CA         23.4682  -28.5501  -40.1021 C.3       6 UNK         0.0297 
     41 CB         23.8707  -27.1070  -39.7549 C.3       6 UNK        -0.2006 
     42 C          23.7639  -29.5094  -38.9379 C.2       6 UNK         0.4892 
     43 O          24.8973  -29.5488  -38.4565 O.2       6 UNK        -0.5089 
     44 N          22.7417  -30.2914  -38.5592 N.am      7 UNK        -0.4243 
     45 CA         22.7528  -31.3765  -37.5676 C.3       7 UNK         0.0196 
     46 CB         23.0948  -30.8405  -36.1608 C.3       7 UNK        -0.2007 
     47 C          23.6239  -32.5919  -37.9545 C.2       7 UNK         0.5020 
     48 O          23.8090  -33.4810  -37.1224 O.2       7 UNK        -0.5147 
     49 N          24.1230  -32.6361  -39.1969 N.am      8 UNK        -0.4734 
     50 CA         24.9493  -33.7210  -39.7305 C.3       8 UNK         0.0238 
     51 CB         26.1565  -33.1222  -40.4704 C.3       8 UNK        -0.1912 
     52 C          24.1492  -34.6517  -40.6540 C.2       8 UNK         0.5038 
     53 O          24.5326  -35.8135  -40.7961 O.2       8 UNK        -0.5046 
     54 N          23.0572  -34.1505  -41.2508 N.am      9 UNK        -0.4200 
     55 CA         22.1294  -34.9377  -42.0803 C.3       9 UNK         0.0839 
     56 C          21.2285  -35.9434  -41.3019 C.2       9 UNK         0.5513 
     57 N          21.1814  -35.9107  -39.9751 N.am      9 UNK        -0.7519 
     58 O          20.5711  -36.7796  -41.9167 O.2       9 UNK        -0.4960 
     59 C59        21.3109  -34.0435  -43.0476 C.3       10 UNK        -0.0876 
     60 S60        20.2250  -32.8308  -42.2178 S.3       10 UNK        -0.2414 
     61 C61        20.3337  -31.4440  -43.3872 C.3       10 UNK         0.0169 
     62 H62        12.3541  -22.6675  -43.3234 H         1 UNK         0.0903 
     63 H63        13.5618  -21.3798  -43.3030 H         1 UNK         0.0903 
     64 H64        12.9239  -21.9676  -44.8395 H         1 UNK         0.0903 
     65 H65        14.3622  -23.2655  -45.8861 H         1 UNK         0.3096 
     66 H66        15.7401  -24.8454  -46.4419 H         1 UNK         0.1121 
     67 H67        14.7517  -26.2115  -44.3919 H         1 UNK         0.0849 
     68 H68        16.2830  -25.8853  -43.6328 H         1 UNK         0.0849 
     69 H69        15.2743  -28.5523  -43.7679 H         1 UNK         0.0865 
     70 H70        15.8965  -29.6525  -44.9672 H         1 UNK         0.0865 
     71 H71        18.0034  -30.7602  -44.6326 H         1 UNK         0.1346 
     72 H72        20.5787  -29.6048  -41.4122 H         1 UNK         0.1412 
     73 H73        16.9955  -27.3826  -42.1879 H         1 UNK         0.1426 
     74 H74        20.0610  -27.6735  -40.0520 H         1 UNK         0.0716 
     75 H75        18.3889  -27.1683  -39.9657 H         1 UNK         0.0716 
     76 H76        21.6197  -27.0360  -41.9604 H         1 UNK         0.0695 
     77 H77        21.7650  -25.3944  -42.5159 H         1 UNK         0.0695 
     78 H78        20.0184  -27.5352  -43.8544 H         1 UNK         0.0983 
     79 H79        19.1404  -26.0396  -45.1145 H         1 UNK         0.3095 
     80 H80        19.5611  -22.7177  -45.8354 H         1 UNK         0.0454 
     81 H81        20.1611  -24.8655  -47.9413 H         1 UNK         0.0851 
     82 H82        21.1467  -23.4499  -47.6059 H         1 UNK         0.0851 
     83 H83        19.5339  -23.2487  -48.2665 H         1 UNK         0.0851 
     84 H84        17.9295  -24.9007  -46.8941 H         1 UNK         0.2976 
     85 H85        22.9503  -25.6088  -44.4118 H         1 UNK         0.3116 
     86 H86        25.0022  -26.0426  -45.0902 H         1 UNK         0.0646 
     87 H87        23.8390  -28.2855  -46.8308 H         1 UNK         0.0847 
     88 H88        25.4453  -27.5936  -46.9718 H         1 UNK         0.0847 
     89 H89        24.0354  -26.5997  -47.2983 H         1 UNK         0.0847 
     90 H90        23.5870  -29.2939  -44.7212 H         1 UNK         0.3040 
     91 H91        25.8577  -30.2575  -43.0493 H         1 UNK         0.1015 
     92 H92        23.4637  -31.6937  -44.3177 H         1 UNK         0.0786 
     93 H93        24.7029  -32.4801  -43.3515 H         1 UNK         0.0786 
     94 H94        25.1286  -31.7413  -44.8840 H         1 UNK         0.0786 
     95 H95        24.7666  -28.2796  -41.7571 H         1 UNK         0.3172 
     96 H96        22.3952  -28.5585  -40.2954 H         1 UNK         0.0595 
     97 H97        24.9444  -27.0169  -39.5844 H         1 UNK         0.0839 
     98 H98        23.3682  -26.7707  -38.8470 H         1 UNK         0.0839 
     99 H99        23.5993  -26.4120  -40.5494 H         1 UNK         0.0839 
    100 H100       21.8703  -30.1908  -39.0608 H         1 UNK         0.2998 
    101 H101       21.7291  -31.7523  -37.5316 H         1 UNK         0.0822 
    102 H102       22.9444  -31.6089  -35.4014 H         1 UNK         0.0787 
    103 H103       24.1337  -30.5174  -36.0903 H         1 UNK         0.0787 
    104 H104       22.4609  -29.9953  -35.8926 H         1 UNK         0.0787 
    105 H105       23.8921  -31.8848  -39.8401 H         1 UNK         0.3055 
    106 H106       25.3337  -34.3364  -38.9138 H         1 UNK         0.1106 
    107 H107       26.7960  -33.9077  -40.8755 H         1 UNK         0.0828 
    108 H108       25.8529  -32.4879  -41.3013 H         1 UNK         0.0828 
    109 H109       26.7695  -32.5200  -39.7996 H         1 UNK         0.0828 
    110 H110       22.8206  -33.1753  -41.1188 H         1 UNK         0.2931 
    111 H111       22.7540  -35.5659  -42.7187 H         1 UNK         0.0412 
    112 H112       21.7178  -35.2300  -39.4625 H         1 UNK         0.3472 
    113 H113       20.5988  -36.5709  -39.4844 H         1 UNK         0.3472 
    114 H114       20.6978  -34.6574  -43.7101 H         1 UNK         0.0970 
    115 H115       22.0013  -33.5131  -43.7039 H         1 UNK         0.0970 
    116 H116       21.3505  -31.0514  -43.3949 H         1 UNK         0.0612 
    117 H117       20.1356  -31.8080  -44.3966 H         1 UNK         0.0612 
@<TRIPOS>BOND
     1    1    2 1    
     2    1   62 1    
     3    1   63 1    
     4    1   64 1    
     5    2    3 2    
     6    2    4 am   BACKBONE|DICT|INTERRES
     7    4    5 1    
     8    4   65 1    
     9    5    6 1    
    10    5   25 1    
    11    5   66 1    
    12    6    7 1    
    13    6   67 1    
    14    6   68 1    
    15    7    8 1    
    16    8    9 1    
    17    8   69 1    
    18    8   70 1    
    19    9   10 ar   
    20    9   14 ar   
    21   10   11 ar   
    22   10   71 1    
    23   11   12 ar   
    24   11   61 1    
    25   12   13 ar   
    26   12   72 1    
    27   13   14 ar   
    28   13   15 1    
    29   14   73 1    
    30   15   16 1    
    31   15   74 1    
    32   15   75 1    
    33   16   17 1    
    34   17   18 1    
    35   17   76 1    
    36   17   77 1    
    37   18   19 1    
    38   18   27 1    
    39   18   78 1    
    40   19   20 am   BACKBONE|DICT|INTERRES
    41   19   79 1    
    42   20   21 2    
    43   20   22 1    
    44   22   23 1    
    45   22   24 1    
    46   22   80 1    
    47   23   81 1    
    48   23   82 1    
    49   23   83 1    
    50   24   25 am   BACKBONE|DICT|INTERRES
    51   24   84 1    
    52   25   26 2    
    53   27   28 2    
    54   27   29 am   BACKBONE|DICT|INTERRES
    55   29   30 1    
    56   29   85 1    
    57   30   31 1    
    58   30   32 1    
    59   30   86 1    
    60   31   87 1    
    61   31   88 1    
    62   31   89 1    
    63   32   33 2    
    64   32   34 am   BACKBONE|DICT|INTERRES
    65   34   35 1    
    66   34   90 1    
    67   35   36 1    
    68   35   37 1    
    69   35   91 1    
    70   36   92 1    
    71   36   93 1    
    72   36   94 1    
    73   37   38 2    
    74   37   39 am   BACKBONE|DICT|INTERRES
    75   39   40 1    
    76   39   95 1    
    77   40   41 1    
    78   40   42 1    
    79   40   96 1    
    80   41   97 1    
    81   41   98 1    
    82   41   99 1    
    83   42   43 2    
    84   42   44 am   BACKBONE|DICT|INTERRES
    85   44   45 1    
    86   44  100 1    
    87   45   46 1    
    88   45   47 1    
    89   45  101 1    
    90   46  102 1    
    91   46  103 1    
    92   46  104 1    
    93   47   48 2    
    94   47   49 am   BACKBONE|DICT|INTERRES
    95   49   50 1    
    96   49  105 1    
    97   50   51 1    
    98   50   52 1    
    99   50  106 1    
   100   51  107 1    
   101   51  108 1    
   102   51  109 1    
   103   52   53 2    
   104   52   54 am   BACKBONE|DICT|INTERRES
   105   54   55 1    
   106   54  110 1    
   107   55   56 1    
   108   55   59 1    
   109   55  111 1    
   110   56   57 am   BACKBONE|DICT|INTERRES
   111   56   58 2    
   112   57  112 1    
   113   57  113 1    
   114   59   60 1    
   115   59  114 1    
   116   59  115 1    
   117   60   61 1    
   118   61  116 1    
   119   61  117 1    
@<TRIPOS>SUBSTRUCTURE
     1 UNK         1 GROUP             0       ****    0 ROOT    
