@<TRIPOS>MOLECULE
3R8
117   119    1
SMALL
USER_CHARGES


@<TRIPOS>ATOM
      1 CA         20.0518  -28.8857  -42.0490 C.3       0 UNK        -0.2013 
      2 C          19.8469  -27.4121  -42.3435 C.2       0 UNK         0.4866 
      3 O          20.6696  -26.5841  -41.9533 O.2       0 UNK        -0.5176 
      4 N          18.7229  -27.1137  -43.0022 N.am      1 UNK        -0.4884 
      5 CA         18.1369  -25.7934  -43.2385 C.3       1 UNK         0.0853 
      6 C6         16.6152  -25.8997  -43.5667 C.3       10 UNK        -0.0849 
      7 S7         15.6873  -27.0304  -42.4664 S.3       10 UNK        -0.2776 
      8 C8         15.2429  -28.3944  -43.6008 C.3       10 UNK         0.0316 
      9 C9         16.4244  -29.3060  -43.9178 C.ar      10 UNK        -0.0863 
     10 C10        16.6665  -30.4405  -43.1348 C.ar      10 UNK        -0.1009 
     11 C11        17.7373  -31.2917  -43.4276 C.ar      10 UNK        -0.0712 
     12 C12        18.5820  -30.9908  -44.4998 C.ar      10 UNK        -0.0894 
     13 C13        18.3656  -29.8490  -45.2762 C.ar      10 UNK        -0.0745 
     14 C14        17.2670  -29.0289  -45.0008 C.ar      10 UNK        -0.0972 
     15 C15        19.3362  -29.4899  -46.3919 C.3       10 UNK         0.0209 
     16 S16        20.8954  -28.8484  -45.7020 S.3       10 UNK        -0.2568 
     17 C17        21.7102  -28.1536  -47.1812 C.3       10 UNK        -0.0983 
     18 CA         21.8855  -26.6137  -47.1206 C.3       3 UNK         0.0876 
     19 N          20.6060  -25.9418  -46.8820 N.am      3 UNK        -0.4424 
     20 C          20.3435  -24.6537  -47.1326 C.2       2 UNK         0.4918 
     21 O          21.1249  -23.8924  -47.7026 O.2       2 UNK        -0.4875 
     22 CA         18.9866  -24.1170  -46.6394 C.3       2 UNK         0.0481 
     23 CB         17.9786  -24.0737  -47.7987 C.3       2 UNK        -0.1831 
     24 N          18.4041  -24.8745  -45.5222 N.am      2 UNK        -0.4498 
     25 C          18.9373  -24.9939  -44.2947 C.2       1 UNK         0.5027 
     26 O          20.0224  -24.4969  -43.9933 O.2       1 UNK        -0.4969 
     27 C          22.9835  -26.1987  -46.1105 C.2       3 UNK         0.5005 
     28 O          24.1590  -26.4543  -46.3765 O.2       3 UNK        -0.5279 
     29 N          22.5935  -25.5764  -44.9833 N.am      4 UNK        -0.4463 
     30 CA         23.4394  -25.0949  -43.8842 C.3       4 UNK         0.0283 
     31 CB         24.3718  -23.9603  -44.3592 C.3       4 UNK        -0.1875 
     32 C          24.1903  -26.2144  -43.1362 C.2       4 UNK         0.4949 
     33 O          25.2511  -25.9618  -42.5629 O.2       4 UNK        -0.5039 
     34 N          23.6238  -27.4291  -43.1346 N.am      5 UNK        -0.4663 
     35 CA         24.1680  -28.5958  -42.4340 C.3       5 UNK         0.0242 
     36 CB         23.5934  -29.8762  -43.0626 C.3       5 UNK        -0.1982 
     37 C          23.9263  -28.5623  -40.9126 C.2       5 UNK         0.5017 
     38 O          24.5941  -29.3027  -40.1896 O.2       5 UNK        -0.5012 
     39 N          22.9901  -27.7174  -40.4503 N.am      6 UNK        -0.4439 
     40 CA         22.5774  -27.5257  -39.0572 C.3       6 UNK         0.0297 
     41 CB         23.6980  -26.8372  -38.2446 C.3       6 UNK        -0.2006 
     42 C          22.0583  -28.8349  -38.4326 C.2       6 UNK         0.4892 
     43 O          20.9409  -29.2457  -38.7444 O.2       6 UNK        -0.5089 
     44 N          22.8658  -29.4638  -37.5703 N.am      7 UNK        -0.4243 
     45 CA         22.5505  -30.7345  -36.9176 C.3       7 UNK         0.0196 
     46 CB         23.3403  -30.8240  -35.6013 C.3       7 UNK        -0.2007 
     47 C          22.8411  -31.9645  -37.7961 C.2       7 UNK         0.5020 
     48 O          22.3300  -33.0428  -37.4907 O.2       7 UNK        -0.5147 
     49 N          23.6578  -31.8195  -38.8507 N.am      8 UNK        -0.4734 
     50 CA         24.1608  -32.9243  -39.6779 C.3       8 UNK         0.0238 
     51 CB         25.5161  -32.5244  -40.2919 C.3       8 UNK        -0.1912 
     52 C          23.1505  -33.4336  -40.7286 C.2       8 UNK         0.5038 
     53 O          23.5168  -33.6225  -41.8900 O.2       8 UNK        -0.5046 
     54 N          21.9075  -33.6770  -40.2979 N.am      9 UNK        -0.4200 
     55 CA         20.8636  -34.3675  -41.0745 C.3       9 UNK         0.0839 
     56 C          20.9930  -35.9191  -41.0515 C.2       9 UNK         0.5513 
     57 N          21.8505  -36.5106  -40.2274 N.am      9 UNK        -0.7519 
     58 O          20.3057  -36.6010  -41.8073 O.2       9 UNK        -0.4960 
     59 C59        19.4411  -33.9193  -40.6465 C.3       10 UNK        -0.0876 
     60 S60        19.0801  -32.2150  -41.1832 S.3       10 UNK        -0.2414 
     61 C61        17.9822  -32.5427  -42.5975 C.3       10 UNK         0.0169 
     62 H62        20.8750  -29.0501  -41.3603 H         1 UNK         0.0903 
     63 H63        19.1554  -29.3008  -41.5899 H         1 UNK         0.0903 
     64 H64        20.2568  -29.4407  -42.9600 H         1 UNK         0.0903 
     65 H65        18.1276  -27.8836  -43.2814 H         1 UNK         0.3096 
     66 H66        18.2300  -25.2358  -42.3039 H         1 UNK         0.1121 
     67 H67        16.1554  -24.9125  -43.4896 H         1 UNK         0.0849 
     68 H68        16.4380  -26.2240  -44.5910 H         1 UNK         0.0849 
     69 H69        14.4456  -28.9794  -43.1395 H         1 UNK         0.0865 
     70 H70        14.8157  -27.9904  -44.5200 H         1 UNK         0.0865 
     71 H71        16.0180  -30.6660  -42.2989 H         1 UNK         0.1346 
     72 H72        19.4263  -31.6317  -44.7152 H         1 UNK         0.1412 
     73 H73        17.0839  -28.1617  -45.6190 H         1 UNK         0.1426 
     74 H74        18.8952  -28.7455  -47.0566 H         1 UNK         0.0716 
     75 H75        19.5437  -30.3702  -47.0021 H         1 UNK         0.0716 
     76 H76        21.1309  -28.4172  -48.0674 H         1 UNK         0.0695 
     77 H77        22.6745  -28.6490  -47.3099 H         1 UNK         0.0695 
     78 H78        22.2463  -26.2904  -48.0997 H         1 UNK         0.0983 
     79 H79        19.9057  -26.4928  -46.4089 H         1 UNK         0.3095 
     80 H80        19.1503  -23.0945  -46.2929 H         1 UNK         0.0454 
     81 H81        18.3699  -23.4921  -48.6348 H         1 UNK         0.0851 
     82 H82        17.0418  -23.6062  -47.4950 H         1 UNK         0.0851 
     83 H83        17.7513  -25.0716  -48.1758 H         1 UNK         0.0851 
     84 H84        17.5057  -25.2988  -45.6985 H         1 UNK         0.2976 
     85 H85        21.6029  -25.3963  -44.8494 H         1 UNK         0.3116 
     86 H86        22.7522  -24.6657  -43.1534 H         1 UNK         0.0646 
     87 H87        25.1406  -24.3256  -45.0407 H         1 UNK         0.0847 
     88 H88        23.8136  -23.1763  -44.8708 H         1 UNK         0.0847 
     89 H89        24.8823  -23.4939  -43.5158 H         1 UNK         0.0847 
     90 H90        22.7501  -27.5494  -43.6275 H         1 UNK         0.3040 
     91 H91        25.2505  -28.6092  -42.5811 H         1 UNK         0.1015 
     92 H92        24.0241  -30.7670  -42.6062 H         1 UNK         0.0786 
     93 H93        23.8114  -29.9256  -44.1297 H         1 UNK         0.0786 
     94 H94        22.5147  -29.9457  -42.9411 H         1 UNK         0.0786 
     95 H95        22.4428  -27.1992  -41.1318 H         1 UNK         0.3172 
     96 H96        21.7268  -26.8428  -39.0833 H         1 UNK         0.0595 
     97 H97        24.6232  -27.4139  -38.2315 H         1 UNK         0.0839 
     98 H98        23.3915  -26.6757  -37.2102 H         1 UNK         0.0839 
     99 H99        23.9328  -25.8582  -38.6627 H         1 UNK         0.0839 
    100 H100       23.7795  -29.0711  -37.3944 H         1 UNK         0.2998 
    101 H101       21.4855  -30.7533  -36.6749 H         1 UNK         0.0822 
    102 H102       23.1059  -31.7457  -35.0667 H         1 UNK         0.0787 
    103 H103       24.4173  -30.8128  -35.7744 H         1 UNK         0.0787 
    104 H104       23.0976  -29.9955  -34.9355 H         1 UNK         0.0787 
    105 H105       23.9889  -30.8904  -39.0949 H         1 UNK         0.3055 
    106 H106       24.3569  -33.7738  -39.0196 H         1 UNK         0.1106 
    107 H107       25.4173  -31.6995  -40.9959 H         1 UNK         0.0828 
    108 H108       26.2266  -32.2222  -39.5225 H         1 UNK         0.0828 
    109 H109       25.9642  -33.3596  -40.8317 H         1 UNK         0.0828 
    110 H110       21.7089  -33.5029  -39.3184 H         1 UNK         0.2931 
    111 H111       20.9874  -34.0900  -42.1234 H         1 UNK         0.0412 
    112 H112       22.4136  -35.9673  -39.5933 H         1 UNK         0.3472 
    113 H113       21.9232  -37.5162  -40.2309 H         1 UNK         0.3472 
    114 H114       18.6753  -34.5807  -41.0570 H         1 UNK         0.0970 
    115 H115       19.3305  -33.9787  -39.5625 H         1 UNK         0.0970 
    116 H116       18.4245  -33.3182  -43.2252 H         1 UNK         0.0612 
    117 H117       17.0351  -32.9433  -42.2329 H         1 UNK         0.0612 
@<TRIPOS>BOND
     1    1    2 1    
     2    1   62 1    
     3    1   63 1    
     4    1   64 1    
     5    2    3 2    
     6    2    4 am   BACKBONE|DICT|INTERRES
     7    4    5 1    
     8    4   65 1    
     9    5    6 1    
    10    5   25 1    
    11    5   66 1    
    12    6    7 1    
    13    6   67 1    
    14    6   68 1    
    15    7    8 1    
    16    8    9 1    
    17    8   69 1    
    18    8   70 1    
    19    9   10 ar   
    20    9   14 ar   
    21   10   11 ar   
    22   10   71 1    
    23   11   12 ar   
    24   11   61 1    
    25   12   13 ar   
    26   12   72 1    
    27   13   14 ar   
    28   13   15 1    
    29   14   73 1    
    30   15   16 1    
    31   15   74 1    
    32   15   75 1    
    33   16   17 1    
    34   17   18 1    
    35   17   76 1    
    36   17   77 1    
    37   18   19 1    
    38   18   27 1    
    39   18   78 1    
    40   19   20 am   BACKBONE|DICT|INTERRES
    41   19   79 1    
    42   20   21 2    
    43   20   22 1    
    44   22   23 1    
    45   22   24 1    
    46   22   80 1    
    47   23   81 1    
    48   23   82 1    
    49   23   83 1    
    50   24   25 am   BACKBONE|DICT|INTERRES
    51   24   84 1    
    52   25   26 2    
    53   27   28 2    
    54   27   29 am   BACKBONE|DICT|INTERRES
    55   29   30 1    
    56   29   85 1    
    57   30   31 1    
    58   30   32 1    
    59   30   86 1    
    60   31   87 1    
    61   31   88 1    
    62   31   89 1    
    63   32   33 2    
    64   32   34 am   BACKBONE|DICT|INTERRES
    65   34   35 1    
    66   34   90 1    
    67   35   36 1    
    68   35   37 1    
    69   35   91 1    
    70   36   92 1    
    71   36   93 1    
    72   36   94 1    
    73   37   38 2    
    74   37   39 am   BACKBONE|DICT|INTERRES
    75   39   40 1    
    76   39   95 1    
    77   40   41 1    
    78   40   42 1    
    79   40   96 1    
    80   41   97 1    
    81   41   98 1    
    82   41   99 1    
    83   42   43 2    
    84   42   44 am   BACKBONE|DICT|INTERRES
    85   44   45 1    
    86   44  100 1    
    87   45   46 1    
    88   45   47 1    
    89   45  101 1    
    90   46  102 1    
    91   46  103 1    
    92   46  104 1    
    93   47   48 2    
    94   47   49 am   BACKBONE|DICT|INTERRES
    95   49   50 1    
    96   49  105 1    
    97   50   51 1    
    98   50   52 1    
    99   50  106 1    
   100   51  107 1    
   101   51  108 1    
   102   51  109 1    
   103   52   53 2    
   104   52   54 am   BACKBONE|DICT|INTERRES
   105   54   55 1    
   106   54  110 1    
   107   55   56 1    
   108   55   59 1    
   109   55  111 1    
   110   56   57 am   BACKBONE|DICT|INTERRES
   111   56   58 2    
   112   57  112 1    
   113   57  113 1    
   114   59   60 1    
   115   59  114 1    
   116   59  115 1    
   117   60   61 1    
   118   61  116 1    
   119   61  117 1    
@<TRIPOS>SUBSTRUCTURE
     1 UNK         1 GROUP             0       ****    0 ROOT    
