@<TRIPOS>MOLECULE
3R8
117   119    1
SMALL
USER_CHARGES


@<TRIPOS>ATOM
      1 CA         17.0023  -22.3956  -46.6449 C.3       0 UNK        -0.2013 
      2 C          18.0220  -23.5215  -46.7281 C.2       0 UNK         0.4866 
      3 O          19.1830  -23.2723  -47.0527 O.2       0 UNK        -0.5176 
      4 N          17.5970  -24.7594  -46.4397 N.am      1 UNK        -0.4884 
      5 CA         18.4469  -25.9591  -46.4529 C.3       1 UNK         0.0853 
      6 C6         17.5887  -27.2506  -46.4853 C.3       10 UNK        -0.0849 
      7 S7         18.4109  -28.6345  -47.3472 S.3       10 UNK        -0.2776 
      8 C8         17.0744  -29.8742  -47.4138 C.3       10 UNK         0.0316 
      9 C9         16.9054  -30.5980  -46.0847 C.ar      10 UNK        -0.0863 
     10 C10        17.4997  -31.8461  -45.8738 C.ar      10 UNK        -0.1009 
     11 C11        17.3463  -32.5084  -44.6509 C.ar      10 UNK        -0.0712 
     12 C12        16.6200  -31.8995  -43.6217 C.ar      10 UNK        -0.0894 
     13 C13        16.0234  -30.6516  -43.8223 C.ar      10 UNK        -0.0745 
     14 C14        16.1447  -30.0235  -45.0643 C.ar      10 UNK        -0.0972 
     15 C15        15.2254  -29.9780  -42.7174 C.3       10 UNK         0.0209 
     16 S16        15.9820  -28.3988  -42.2117 S.3       10 UNK        -0.2568 
     17 C17        17.1024  -28.8870  -40.8524 C.3       10 UNK        -0.0983 
     18 CA         18.6110  -28.5728  -41.0893 C.3       3 UNK         0.0876 
     19 N          18.7970  -27.2240  -41.6420 N.am      3 UNK        -0.4424 
     20 C          19.8893  -26.7477  -42.2525 C.2       2 UNK         0.4918 
     21 O          20.9384  -27.3759  -42.3813 O.2       2 UNK        -0.4875 
     22 CA         19.7553  -25.3363  -42.8506 C.3       2 UNK         0.0481 
     23 CB         21.1075  -24.6004  -42.9588 C.3       2 UNK        -0.1831 
     24 N          19.0596  -25.3750  -44.1429 N.am      2 UNK        -0.4498 
     25 C          19.4498  -25.9867  -45.2764 C.2       1 UNK         0.5027 
     26 O          20.5362  -26.5451  -45.4297 O.2       1 UNK        -0.4969 
     27 C          19.4393  -28.7883  -39.7942 C.2       3 UNK         0.5005 
     28 O          18.8640  -28.9968  -38.7228 O.2       3 UNK        -0.5279 
     29 N          20.7687  -28.6994  -39.8888 N.am      4 UNK        -0.4463 
     30 CA         21.7153  -28.8410  -38.7874 C.3       4 UNK         0.0283 
     31 CB         21.8665  -27.4997  -38.0482 C.3       4 UNK        -0.1875 
     32 C          23.0602  -29.3052  -39.3481 C.2       4 UNK         0.4949 
     33 O          23.4211  -28.9194  -40.4612 O.2       4 UNK        -0.5039 
     34 N          23.7977  -30.0852  -38.5464 N.am      5 UNK        -0.4663 
     35 CA         25.0312  -30.7932  -38.9201 C.3       5 UNK         0.0242 
     36 CB         25.4881  -31.6553  -37.7319 C.3       5 UNK        -0.1982 
     37 C          26.1902  -29.9113  -39.4207 C.2       5 UNK         0.5017 
     38 O          27.0952  -30.4284  -40.0762 O.2       5 UNK        -0.5012 
     39 N          26.1366  -28.6046  -39.1293 N.am      6 UNK        -0.4439 
     40 CA         27.0351  -27.5827  -39.6708 C.3       6 UNK         0.0297 
     41 CB         26.8013  -26.2614  -38.9204 C.3       6 UNK        -0.2006 
     42 C          26.8833  -27.3706  -41.1916 C.2       6 UNK         0.4892 
     43 O          27.8280  -26.8879  -41.8177 O.2       6 UNK        -0.5089 
     44 N          25.7191  -27.7269  -41.7521 N.am      7 UNK        -0.4243 
     45 CA         25.4178  -27.6752  -43.1792 C.3       7 UNK         0.0196 
     46 CB         24.2703  -26.6821  -43.4274 C.3       7 UNK        -0.2007 
     47 C          25.0877  -29.0886  -43.6743 C.2       7 UNK         0.5020 
     48 O          25.9030  -29.6803  -44.3825 O.2       7 UNK        -0.5147 
     49 N          23.9216  -29.6168  -43.2851 N.am      8 UNK        -0.4734 
     50 CA         23.4412  -30.9538  -43.6287 C.3       8 UNK         0.0238 
     51 CB         22.9890  -31.0027  -45.1022 C.3       8 UNK        -0.1912 
     52 C          22.2732  -31.3285  -42.7099 C.2       8 UNK         0.5038 
     53 O          21.4903  -30.4542  -42.3363 O.2       8 UNK        -0.5046 
     54 N          22.1441  -32.6283  -42.4176 N.am      9 UNK        -0.4200 
     55 CA         21.0425  -33.2243  -41.6429 C.3       9 UNK         0.0839 
     56 C          21.0296  -32.7498  -40.1579 C.2       9 UNK         0.5513 
     57 N          19.8724  -32.5731  -39.5322 N.am      9 UNK        -0.7519 
     58 O          22.0807  -32.6051  -39.5396 O.2       9 UNK        -0.4960 
     59 C59        19.6703  -33.1138  -42.3730 C.3       10 UNK        -0.0876 
     60 S60        19.7188  -33.8156  -44.0570 S.3       10 UNK        -0.2414 
     61 C61        17.9475  -33.8923  -44.4541 C.3       10 UNK         0.0169 
     62 H62        16.9091  -21.9021  -47.6120 H         1 UNK         0.0903 
     63 H63        16.0165  -22.7569  -46.3528 H         1 UNK         0.0903 
     64 H64        17.3218  -21.6536  -45.9136 H         1 UNK         0.0903 
     65 H65        16.6277  -24.9038  -46.1924 H         1 UNK         0.3096 
     66 H66        19.0380  -25.9150  -47.3712 H         1 UNK         0.1121 
     67 H67        16.6511  -27.0651  -47.0120 H         1 UNK         0.0849 
     68 H68        17.3119  -27.5555  -45.4751 H         1 UNK         0.0849 
     69 H69        16.1374  -29.3991  -47.7087 H         1 UNK         0.0865 
     70 H70        17.3059  -30.5933  -48.2010 H         1 UNK         0.0865 
     71 H71        18.0784  -32.3078  -46.6624 H         1 UNK         0.1346 
     72 H72        16.5098  -32.4023  -42.6707 H         1 UNK         0.1412 
     73 H73        15.6591  -29.0711  -45.2243 H         1 UNK         0.1426 
     74 H74        15.1021  -30.6334  -41.8540 H         1 UNK         0.0716 
     75 H75        14.2198  -29.7763  -43.0890 H         1 UNK         0.0716 
     76 H76        16.9784  -29.9499  -40.6386 H         1 UNK         0.0695 
     77 H77        16.7357  -28.3602  -39.9692 H         1 UNK         0.0695 
     78 H78        18.9856  -29.2842  -41.8294 H         1 UNK         0.0983 
     79 H79        17.9795  -26.6339  -41.5962 H         1 UNK         0.3095 
     80 H80        19.1263  -24.7546  -42.1748 H         1 UNK         0.0454 
     81 H81        20.9744  -23.5793  -43.3153 H         1 UNK         0.0851 
     82 H82        21.7968  -25.1021  -43.6374 H         1 UNK         0.0851 
     83 H83        21.5978  -24.5454  -41.9863 H         1 UNK         0.0851 
     84 H84        18.1473  -24.9413  -44.1554 H         1 UNK         0.2976 
     85 H85        21.1855  -28.5546  -40.8086 H         1 UNK         0.3116 
     86 H86        21.3477  -29.6027  -38.0963 H         1 UNK         0.0646 
     87 H87        22.2218  -26.7129  -38.7151 H         1 UNK         0.0847 
     88 H88        22.5797  -27.5811  -37.2271 H         1 UNK         0.0847 
     89 H89        20.9187  -27.1724  -37.6205 H         1 UNK         0.0847 
     90 H90        23.4162  -30.3239  -37.6421 H         1 UNK         0.3040 
     91 H91        24.7726  -31.4607  -39.7454 H         1 UNK         0.1015 
     92 H92        25.7194  -31.0462  -36.8572 H         1 UNK         0.0786 
     93 H93        26.3857  -32.2234  -37.9809 H         1 UNK         0.0786 
     94 H94        24.7214  -32.3770  -37.4487 H         1 UNK         0.0786 
     95 H95        25.3494  -28.2820  -38.5857 H         1 UNK         0.3172 
     96 H96        28.0615  -27.9059  -39.4850 H         1 UNK         0.0595 
     97 H97        25.7834  -25.8935  -39.0571 H         1 UNK         0.0839 
     98 H98        27.4783  -25.4846  -39.2791 H         1 UNK         0.0839 
     99 H99        26.9791  -26.3737  -37.8507 H         1 UNK         0.0839 
    100 H100       24.9998  -28.1488  -41.1683 H         1 UNK         0.2998 
    101 H101       26.2853  -27.3317  -43.7468 H         1 UNK         0.0822 
    102 H102       24.5894  -25.6584  -43.2323 H         1 UNK         0.0787 
    103 H103       23.9237  -26.7253  -44.4609 H         1 UNK         0.0787 
    104 H104       23.4158  -26.8870  -42.7842 H         1 UNK         0.0787 
    105 H105       23.3204  -29.1059  -42.6433 H         1 UNK         0.3055 
    106 H106       24.2548  -31.6652  -43.4710 H         1 UNK         0.1106 
    107 H107       22.5838  -31.9832  -45.3559 H         1 UNK         0.0828 
    108 H108       22.2089  -30.2669  -45.3033 H         1 UNK         0.0828 
    109 H109       23.8157  -30.8102  -45.7857 H         1 UNK         0.0828 
    110 H110       22.8348  -33.2800  -42.7587 H         1 UNK         0.2931 
    111 H111       21.2818  -34.2866  -41.5830 H         1 UNK         0.0412 
    112 H112       18.9928  -32.7189  -39.9989 H         1 UNK         0.3472 
    113 H113       19.8827  -32.2906  -38.5650 H         1 UNK         0.3472 
    114 H114       19.3476  -32.0730  -42.4348 H         1 UNK         0.0970 
    115 H115       18.9001  -33.6490  -41.8160 H         1 UNK         0.0970 
    116 H116       17.4193  -34.4369  -43.6699 H         1 UNK         0.0612 
    117 H117       17.8195  -34.4761  -45.3668 H         1 UNK         0.0612 
@<TRIPOS>BOND
     1    1    2 1    
     2    1   62 1    
     3    1   63 1    
     4    1   64 1    
     5    2    3 2    
     6    2    4 am   BACKBONE|DICT|INTERRES
     7    4    5 1    
     8    4   65 1    
     9    5    6 1    
    10    5   25 1    
    11    5   66 1    
    12    6    7 1    
    13    6   67 1    
    14    6   68 1    
    15    7    8 1    
    16    8    9 1    
    17    8   69 1    
    18    8   70 1    
    19    9   10 ar   
    20    9   14 ar   
    21   10   11 ar   
    22   10   71 1    
    23   11   12 ar   
    24   11   61 1    
    25   12   13 ar   
    26   12   72 1    
    27   13   14 ar   
    28   13   15 1    
    29   14   73 1    
    30   15   16 1    
    31   15   74 1    
    32   15   75 1    
    33   16   17 1    
    34   17   18 1    
    35   17   76 1    
    36   17   77 1    
    37   18   19 1    
    38   18   27 1    
    39   18   78 1    
    40   19   20 am   BACKBONE|DICT|INTERRES
    41   19   79 1    
    42   20   21 2    
    43   20   22 1    
    44   22   23 1    
    45   22   24 1    
    46   22   80 1    
    47   23   81 1    
    48   23   82 1    
    49   23   83 1    
    50   24   25 am   BACKBONE|DICT|INTERRES
    51   24   84 1    
    52   25   26 2    
    53   27   28 2    
    54   27   29 am   BACKBONE|DICT|INTERRES
    55   29   30 1    
    56   29   85 1    
    57   30   31 1    
    58   30   32 1    
    59   30   86 1    
    60   31   87 1    
    61   31   88 1    
    62   31   89 1    
    63   32   33 2    
    64   32   34 am   BACKBONE|DICT|INTERRES
    65   34   35 1    
    66   34   90 1    
    67   35   36 1    
    68   35   37 1    
    69   35   91 1    
    70   36   92 1    
    71   36   93 1    
    72   36   94 1    
    73   37   38 2    
    74   37   39 am   BACKBONE|DICT|INTERRES
    75   39   40 1    
    76   39   95 1    
    77   40   41 1    
    78   40   42 1    
    79   40   96 1    
    80   41   97 1    
    81   41   98 1    
    82   41   99 1    
    83   42   43 2    
    84   42   44 am   BACKBONE|DICT|INTERRES
    85   44   45 1    
    86   44  100 1    
    87   45   46 1    
    88   45   47 1    
    89   45  101 1    
    90   46  102 1    
    91   46  103 1    
    92   46  104 1    
    93   47   48 2    
    94   47   49 am   BACKBONE|DICT|INTERRES
    95   49   50 1    
    96   49  105 1    
    97   50   51 1    
    98   50   52 1    
    99   50  106 1    
   100   51  107 1    
   101   51  108 1    
   102   51  109 1    
   103   52   53 2    
   104   52   54 am   BACKBONE|DICT|INTERRES
   105   54   55 1    
   106   54  110 1    
   107   55   56 1    
   108   55   59 1    
   109   55  111 1    
   110   56   57 am   BACKBONE|DICT|INTERRES
   111   56   58 2    
   112   57  112 1    
   113   57  113 1    
   114   59   60 1    
   115   59  114 1    
   116   59  115 1    
   117   60   61 1    
   118   61  116 1    
   119   61  117 1    
@<TRIPOS>SUBSTRUCTURE
     1 UNK         1 GROUP             0       ****    0 ROOT    
