@<TRIPOS>MOLECULE
3R8
117   119    1
SMALL
USER_CHARGES


@<TRIPOS>ATOM
      1 CA         22.0216  -30.7907  -47.5533 C.3       0 UNK        -0.2013 
      2 C          21.1433  -29.5580  -47.3967 C.2       0 UNK         0.4866 
      3 O          21.2787  -28.6080  -48.1683 O.2       0 UNK        -0.5176 
      4 N          20.2455  -29.5748  -46.4042 N.am      1 UNK        -0.4884 
      5 CA         19.3609  -28.4721  -46.0152 C.3       1 UNK         0.0853 
      6 C6         18.3090  -28.1060  -47.1038 C.3       10 UNK        -0.0849 
      7 S7         16.8098  -27.2771  -46.4545 S.3       10 UNK        -0.2776 
      8 C8         15.7157  -28.6716  -46.0296 C.3       10 UNK         0.0316 
      9 C9         16.2039  -29.4116  -44.7926 C.ar      10 UNK        -0.0863 
     10 C10        16.8953  -30.6182  -44.9273 C.ar      10 UNK        -0.1009 
     11 C11        17.3933  -31.2780  -43.8018 C.ar      10 UNK        -0.0712 
     12 C12        17.1588  -30.7476  -42.5292 C.ar      10 UNK        -0.0894 
     13 C13        16.4476  -29.5524  -42.3776 C.ar      10 UNK        -0.0745 
     14 C14        15.9792  -28.8851  -43.5155 C.ar      10 UNK        -0.0972 
     15 C15        16.1455  -29.0093  -40.9844 C.3       10 UNK         0.0209 
     16 S16        17.6352  -28.4853  -40.0703 S.3       10 UNK        -0.2568 
     17 C17        18.1008  -26.9485  -40.9330 C.3       10 UNK        -0.0983 
     18 CA         19.6220  -26.8980  -41.2477 C.3       3 UNK         0.0876 
     19 N          19.9240  -26.3219  -42.5594 N.am      3 UNK        -0.4424 
     20 C          19.5844  -25.1288  -43.0633 C.2       2 UNK         0.4918 
     21 O          19.0459  -24.2367  -42.4076 O.2       2 UNK        -0.4875 
     22 CA         19.8507  -24.9116  -44.5673 C.3       2 UNK         0.0481 
     23 CB         21.2762  -24.3852  -44.8209 C.3       2 UNK        -0.1831 
     24 N          19.5347  -26.0973  -45.3826 N.am      2 UNK        -0.4498 
     25 C          20.1414  -27.2934  -45.3955 C.2       1 UNK         0.5027 
     26 O          21.2050  -27.5132  -44.8109 O.2       1 UNK        -0.4969 
     27 C          20.4590  -26.2577  -40.1244 C.2       3 UNK         0.5005 
     28 O          21.2294  -26.9572  -39.4645 O.2       3 UNK        -0.5279 
     29 N          20.3706  -24.9268  -39.9885 N.am      4 UNK        -0.4463 
     30 CA         21.1633  -24.0995  -39.0698 C.3       4 UNK         0.0283 
     31 CB         20.6331  -22.6576  -39.1090 C.3       4 UNK        -0.1875 
     32 C          22.6767  -24.1242  -39.3614 C.2       4 UNK         0.4949 
     33 O          23.4711  -23.8288  -38.4693 O.2       4 UNK        -0.5039 
     34 N          23.0465  -24.5062  -40.5917 N.am      5 UNK        -0.4663 
     35 CA         24.4205  -24.7552  -41.0315 C.3       5 UNK         0.0242 
     36 CB         24.4430  -24.7801  -42.5694 C.3       5 UNK        -0.1982 
     37 C          25.0294  -26.0568  -40.4693 C.2       5 UNK         0.5017 
     38 O          26.2332  -26.2563  -40.6340 O.2       5 UNK        -0.5012 
     39 N          24.2055  -26.9155  -39.8428 N.am      6 UNK        -0.4439 
     40 CA         24.5449  -28.2324  -39.2904 C.3       6 UNK         0.0297 
     41 CB         25.5409  -28.1089  -38.1171 C.3       6 UNK        -0.2006 
     42 C          25.0064  -29.2148  -40.3834 C.2       6 UNK         0.4892 
     43 O          26.0778  -29.8135  -40.2736 O.2       6 UNK        -0.5089 
     44 N          24.1752  -29.3513  -41.4277 N.am      7 UNK        -0.4243 
     45 CA         24.4041  -30.2285  -42.5822 C.3       7 UNK         0.0196 
     46 CB         23.3630  -29.9126  -43.6700 C.3       7 UNK        -0.2007 
     47 C          24.3866  -31.7316  -42.2454 C.2       7 UNK         0.5020 
     48 O          24.9903  -32.5138  -42.9794 O.2       7 UNK        -0.5147 
     49 N          23.6936  -32.1035  -41.1566 N.am      8 UNK        -0.4734 
     50 CA         23.5524  -33.4616  -40.6062 C.3       8 UNK         0.0238 
     51 CB         24.9140  -33.9959  -40.1111 C.3       8 UNK        -0.1912 
     52 C          22.8310  -34.4546  -41.5422 C.2       8 UNK         0.5038 
     53 O          23.0180  -35.6659  -41.4098 O.2       8 UNK        -0.5046 
     54 N          22.0118  -33.9276  -42.4596 N.am      9 UNK        -0.4200 
     55 CA         21.1328  -34.6869  -43.3560 C.3       9 UNK         0.0839 
     56 C          19.9591  -35.3884  -42.6156 C.2       9 UNK         0.5513 
     57 N          19.3654  -36.4042  -43.2275 N.am      9 UNK        -0.7519 
     58 O          19.5633  -35.0103  -41.5144 O.2       9 UNK        -0.4960 
     59 C59        20.6499  -33.8172  -44.5498 C.3       10 UNK        -0.0876 
     60 S60        19.9726  -32.1823  -44.0896 S.3       10 UNK        -0.2414 
     61 C61        18.1967  -32.5554  -43.9694 C.3       10 UNK         0.0169 
     62 H62        21.8843  -31.2268  -48.5424 H         1 UNK         0.0903 
     63 H63        23.0710  -30.5188  -47.4424 H         1 UNK         0.0903 
     64 H64        21.7900  -31.5540  -46.8108 H         1 UNK         0.0903 
     65 H65        20.2139  -30.3770  -45.7877 H         1 UNK         0.3096 
     66 H66        18.8225  -28.8671  -45.1572 H         1 UNK         0.1121 
     67 H67        17.9886  -29.0092  -47.6254 H         1 UNK         0.0849 
     68 H68        18.7581  -27.4731  -47.8714 H         1 UNK         0.0849 
     69 H69        14.7109  -28.2878  -45.8466 H         1 UNK         0.0865 
     70 H70        15.6296  -29.3469  -46.8824 H         1 UNK         0.0865 
     71 H71        17.0792  -31.0263  -45.9121 H         1 UNK         0.1346 
     72 H72        17.5337  -31.2627  -41.6550 H         1 UNK         0.1412 
     73 H73        15.4360  -27.9555  -43.4104 H         1 UNK         0.1426 
     74 H74        15.6441  -29.7888  -40.4090 H         1 UNK         0.0716 
     75 H75        15.4451  -28.1740  -41.0336 H         1 UNK         0.0716 
     76 H76        17.7731  -26.0893  -40.3448 H         1 UNK         0.0695 
     77 H77        17.5272  -26.9001  -41.8598 H         1 UNK         0.0695 
     78 H78        19.9785  -27.9261  -41.3367 H         1 UNK         0.0983 
     79 H79        20.4280  -26.9367  -43.1933 H         1 UNK         0.3095 
     80 H80        19.1555  -24.1382  -44.8973 H         1 UNK         0.0454 
     81 H81        21.4368  -24.1763  -45.8784 H         1 UNK         0.0851 
     82 H82        22.0420  -25.0908  -44.5016 H         1 UNK         0.0851 
     83 H83        21.4485  -23.4554  -44.2775 H         1 UNK         0.0851 
     84 H84        18.6357  -26.0575  -45.8500 H         1 UNK         0.2976 
     85 H85        19.7540  -24.4397  -40.6345 H         1 UNK         0.3116 
     86 H86        21.0200  -24.4929  -38.0614 H         1 UNK         0.0646 
     87 H87        20.7273  -22.2197  -40.1036 H         1 UNK         0.0847 
     88 H88        19.5830  -22.6121  -38.8200 H         1 UNK         0.0847 
     89 H89        21.1850  -22.0188  -38.4178 H         1 UNK         0.0847 
     90 H90        22.3154  -24.7094  -41.2566 H         1 UNK         0.3040 
     91 H91        25.0469  -23.9291  -40.6875 H         1 UNK         0.1015 
     92 H92        25.4623  -24.8874  -42.9431 H         1 UNK         0.0786 
     93 H93        24.0429  -23.8575  -42.9904 H         1 UNK         0.0786 
     94 H94        23.8638  -25.6146  -42.9670 H         1 UNK         0.0786 
     95 H95        23.2258  -26.6607  -39.7591 H         1 UNK         0.3172 
     96 H96        23.6170  -28.6390  -38.8851 H         1 UNK         0.0595 
     97 H97        26.5171  -27.7499  -38.4442 H         1 UNK         0.0839 
     98 H98        25.6976  -29.0760  -37.6378 H         1 UNK         0.0839 
     99 H99        25.1708  -27.4251  -37.3533 H         1 UNK         0.0839 
    100 H100       23.3263  -28.8051  -41.4358 H         1 UNK         0.2998 
    101 H101       25.3950  -30.0003  -42.9807 H         1 UNK         0.0822 
    102 H102       23.5021  -30.5495  -44.5447 H         1 UNK         0.0787 
    103 H103       23.4473  -28.8802  -44.0100 H         1 UNK         0.0787 
    104 H104       22.3428  -30.0661  -43.3160 H         1 UNK         0.0787 
    105 H105       23.2237  -31.3736  -40.6393 H         1 UNK         0.3055 
    106 H106       22.9050  -33.3673  -39.7328 H         1 UNK         0.1106 
    107 H107       25.5954  -34.1967  -40.9383 H         1 UNK         0.0828 
    108 H108       25.3995  -33.2855  -39.4419 H         1 UNK         0.0828 
    109 H109       24.7929  -34.9281  -39.5580 H         1 UNK         0.0828 
    110 H110       21.8973  -32.9257  -42.4835 H         1 UNK         0.2931 
    111 H111       21.7443  -35.4879  -43.7768 H         1 UNK         0.0412 
    112 H112       19.6792  -36.7286  -44.1292 H         1 UNK         0.3472 
    113 H113       18.5960  -36.8686  -42.7701 H         1 UNK         0.3472 
    114 H114       21.5003  -33.6313  -45.2074 H         1 UNK         0.0970 
    115 H115       19.9307  -34.3574  -45.1682 H         1 UNK         0.0970 
    116 H116       17.8707  -33.0884  -44.8640 H         1 UNK         0.0612 
    117 H117       18.0163  -33.2220  -43.1255 H         1 UNK         0.0612 
@<TRIPOS>BOND
     1    1    2 1    
     2    1   62 1    
     3    1   63 1    
     4    1   64 1    
     5    2    3 2    
     6    2    4 am   BACKBONE|DICT|INTERRES
     7    4    5 1    
     8    4   65 1    
     9    5    6 1    
    10    5   25 1    
    11    5   66 1    
    12    6    7 1    
    13    6   67 1    
    14    6   68 1    
    15    7    8 1    
    16    8    9 1    
    17    8   69 1    
    18    8   70 1    
    19    9   10 ar   
    20    9   14 ar   
    21   10   11 ar   
    22   10   71 1    
    23   11   12 ar   
    24   11   61 1    
    25   12   13 ar   
    26   12   72 1    
    27   13   14 ar   
    28   13   15 1    
    29   14   73 1    
    30   15   16 1    
    31   15   74 1    
    32   15   75 1    
    33   16   17 1    
    34   17   18 1    
    35   17   76 1    
    36   17   77 1    
    37   18   19 1    
    38   18   27 1    
    39   18   78 1    
    40   19   20 am   BACKBONE|DICT|INTERRES
    41   19   79 1    
    42   20   21 2    
    43   20   22 1    
    44   22   23 1    
    45   22   24 1    
    46   22   80 1    
    47   23   81 1    
    48   23   82 1    
    49   23   83 1    
    50   24   25 am   BACKBONE|DICT|INTERRES
    51   24   84 1    
    52   25   26 2    
    53   27   28 2    
    54   27   29 am   BACKBONE|DICT|INTERRES
    55   29   30 1    
    56   29   85 1    
    57   30   31 1    
    58   30   32 1    
    59   30   86 1    
    60   31   87 1    
    61   31   88 1    
    62   31   89 1    
    63   32   33 2    
    64   32   34 am   BACKBONE|DICT|INTERRES
    65   34   35 1    
    66   34   90 1    
    67   35   36 1    
    68   35   37 1    
    69   35   91 1    
    70   36   92 1    
    71   36   93 1    
    72   36   94 1    
    73   37   38 2    
    74   37   39 am   BACKBONE|DICT|INTERRES
    75   39   40 1    
    76   39   95 1    
    77   40   41 1    
    78   40   42 1    
    79   40   96 1    
    80   41   97 1    
    81   41   98 1    
    82   41   99 1    
    83   42   43 2    
    84   42   44 am   BACKBONE|DICT|INTERRES
    85   44   45 1    
    86   44  100 1    
    87   45   46 1    
    88   45   47 1    
    89   45  101 1    
    90   46  102 1    
    91   46  103 1    
    92   46  104 1    
    93   47   48 2    
    94   47   49 am   BACKBONE|DICT|INTERRES
    95   49   50 1    
    96   49  105 1    
    97   50   51 1    
    98   50   52 1    
    99   50  106 1    
   100   51  107 1    
   101   51  108 1    
   102   51  109 1    
   103   52   53 2    
   104   52   54 am   BACKBONE|DICT|INTERRES
   105   54   55 1    
   106   54  110 1    
   107   55   56 1    
   108   55   59 1    
   109   55  111 1    
   110   56   57 am   BACKBONE|DICT|INTERRES
   111   56   58 2    
   112   57  112 1    
   113   57  113 1    
   114   59   60 1    
   115   59  114 1    
   116   59  115 1    
   117   60   61 1    
   118   61  116 1    
   119   61  117 1    
@<TRIPOS>SUBSTRUCTURE
     1 UNK         1 GROUP             0       ****    0 ROOT    
