@<TRIPOS>MOLECULE
3R8
117   119    1
SMALL
USER_CHARGES


@<TRIPOS>ATOM
      1 CA         11.7947  -24.5257  -45.8635 C.3       0 UNK        -0.2013 
      2 C          13.2427  -24.1841  -46.1821 C.2       0 UNK         0.4866 
      3 O          13.6328  -23.0196  -46.0877 O.2       0 UNK        -0.5176 
      4 N          14.0396  -25.1875  -46.5680 N.am      1 UNK        -0.4884 
      5 CA         15.4761  -25.0635  -46.8344 C.3       1 UNK         0.0853 
      6 C6         15.9824  -26.2225  -47.7352 C.3       10 UNK        -0.0849 
      7 S7         15.7163  -27.8964  -47.0432 S.3       10 UNK        -0.2776 
      8 C8         17.4162  -28.3230  -46.5480 C.3       10 UNK         0.0316 
      9 C9         17.4592  -29.2750  -45.3620 C.ar      10 UNK        -0.0863 
     10 C10        18.1316  -30.4972  -45.4592 C.ar      10 UNK        -0.1009 
     11 C11        18.2430  -31.3338  -44.3449 C.ar      10 UNK        -0.0712 
     12 C12        17.6710  -30.9451  -43.1309 C.ar      10 UNK        -0.0894 
     13 C13        17.0074  -29.7225  -43.0158 C.ar      10 UNK        -0.0745 
     14 C14        16.8878  -28.9009  -44.1413 C.ar      10 UNK        -0.0972 
     15 C15        16.4383  -29.2962  -41.6680 C.3       10 UNK         0.0209 
     16 S16        16.9587  -27.6218  -41.1681 S.3       10 UNK        -0.2568 
     17 C17        18.7843  -27.7462  -41.1352 C.3       10 UNK        -0.0983 
     18 CA         19.4679  -27.2572  -42.4431 C.3       3 UNK         0.0876 
     19 N          18.9126  -25.9903  -42.9284 N.am      3 UNK        -0.4424 
     20 C          19.0926  -25.4954  -44.1574 C.2       2 UNK         0.4918 
     21 O          19.7669  -26.0434  -45.0316 O.2       2 UNK        -0.4875 
     22 CA         18.3934  -24.1636  -44.4728 C.3       2 UNK         0.0481 
     23 CB         19.4229  -23.0695  -44.8001 C.3       2 UNK        -0.1831 
     24 N          17.4697  -24.3184  -45.5991 N.am      2 UNK        -0.4498 
     25 C          16.2806  -24.9324  -45.5193 C.2       1 UNK         0.5027 
     26 O          15.8239  -25.3899  -44.4678 O.2       1 UNK        -0.4969 
     27 C          20.9918  -27.1182  -42.2604 C.2       3 UNK         0.5005 
     28 O          21.4264  -26.2149  -41.5404 O.2       3 UNK        -0.5279 
     29 N          21.7750  -27.9761  -42.9302 N.am      4 UNK        -0.4463 
     30 CA         23.2379  -27.9175  -42.9233 C.3       4 UNK         0.0283 
     31 CB         23.8126  -28.7647  -44.0716 C.3       4 UNK        -0.1875 
     32 C          23.8273  -28.3430  -41.5689 C.2       4 UNK         0.4949 
     33 O          23.6858  -29.5043  -41.1727 O.2       4 UNK        -0.5039 
     34 N          24.4963  -27.3907  -40.9077 N.am      5 UNK        -0.4663 
     35 CA         25.3119  -27.6005  -39.7110 C.3       5 UNK         0.0242 
     36 CB         25.5576  -26.2415  -39.0349 C.3       5 UNK        -0.1982 
     37 C          26.6459  -28.2775  -40.0689 C.2       5 UNK         0.5017 
     38 O          27.0403  -28.2784  -41.2381 O.2       5 UNK        -0.5012 
     39 N          27.3041  -28.8694  -39.0618 N.am      6 UNK        -0.4439 
     40 CA         28.5314  -29.6855  -39.1254 C.3       6 UNK         0.0297 
     41 CB         29.7208  -28.9103  -39.7263 C.3       6 UNK        -0.2006 
     42 C          28.3296  -31.0442  -39.8239 C.2       6 UNK         0.4892 
     43 O          28.7708  -32.0647  -39.2953 O.2       6 UNK        -0.5089 
     44 N          27.6151  -31.0419  -40.9570 N.am      7 UNK        -0.4243 
     45 CA         27.0442  -32.2238  -41.6062 C.3       7 UNK         0.0196 
     46 CB         26.5134  -31.8264  -42.9934 C.3       7 UNK        -0.2007 
     47 C          25.9198  -32.8628  -40.7691 C.2       7 UNK         0.5020 
     48 O          25.7234  -34.0746  -40.8574 O.2       7 UNK        -0.5147 
     49 N          25.2246  -32.0344  -39.9712 N.am      8 UNK        -0.4734 
     50 CA         24.1310  -32.3710  -39.0524 C.3       8 UNK         0.0238 
     51 CB         24.6442  -33.2473  -37.8895 C.3       8 UNK        -0.1912 
     52 C          22.9290  -32.9829  -39.7915 C.2       8 UNK         0.5038 
     53 O          22.4945  -34.0885  -39.4609 O.2       8 UNK        -0.5046 
     54 N          22.4430  -32.2534  -40.8042 N.am      9 UNK        -0.4200 
     55 CA         21.3079  -32.6409  -41.6538 C.3       9 UNK         0.0839 
     56 C          19.9946  -32.8105  -40.8417 C.2       9 UNK         0.5513 
     57 N          19.3094  -33.9368  -40.9810 N.am      9 UNK        -0.7519 
     58 O          19.5779  -31.9084  -40.1187 O.2       9 UNK        -0.4960 
     59 C59        21.1241  -31.6370  -42.8250 C.3       10 UNK        -0.0876 
     60 S60        20.7978  -32.4448  -44.4296 S.3       10 UNK        -0.2414 
     61 C61        18.9874  -32.6561  -44.4447 C.3       10 UNK         0.0169 
     62 H62        11.5857  -25.5862  -46.0034 H         1 UNK         0.0903 
     63 H63        11.5683  -24.2693  -44.8289 H         1 UNK         0.0903 
     64 H64        11.1242  -23.9599  -46.5098 H         1 UNK         0.0903 
     65 H65        13.6828  -26.1328  -46.5905 H         1 UNK         0.3096 
     66 H66        15.6236  -24.1334  -47.3888 H         1 UNK         0.1121 
     67 H67        17.0357  -26.0826  -47.9852 H         1 UNK         0.0849 
     68 H68        15.4601  -26.1814  -48.6924 H         1 UNK         0.0849 
     69 H69        17.9401  -28.7410  -47.4090 H         1 UNK         0.0865 
     70 H70        17.9577  -27.4201  -46.2712 H         1 UNK         0.0865 
     71 H71        18.5890  -30.7920  -46.3941 H         1 UNK         0.1346 
     72 H72        17.7575  -31.5896  -42.2674 H         1 UNK         0.1412 
     73 H73        16.3812  -27.9487  -44.0571 H         1 UNK         0.1426 
     74 H74        15.3494  -29.3244  -41.7222 H         1 UNK         0.0716 
     75 H75        16.7278  -29.9971  -40.8831 H         1 UNK         0.0716 
     76 H76        19.0719  -28.7771  -40.9189 H         1 UNK         0.0695 
     77 H77        19.1234  -27.1543  -40.2827 H         1 UNK         0.0695 
     78 H78        19.2898  -28.0068  -43.2153 H         1 UNK         0.0983 
     79 H79        18.3383  -25.4840  -42.2708 H         1 UNK         0.3095 
     80 H80        17.8258  -23.8385  -43.5978 H         1 UNK         0.0454 
     81 H81        18.9389  -22.1102  -44.9836 H         1 UNK         0.0851 
     82 H82        20.0167  -23.3204  -45.6801 H         1 UNK         0.0851 
     83 H83        20.1166  -22.9280  -43.9702 H         1 UNK         0.0851 
     84 H84        17.7999  -23.9951  -46.4972 H         1 UNK         0.2976 
     85 H85        21.3512  -28.6815  -43.5144 H         1 UNK         0.3116 
     86 H86        23.5244  -26.8817  -43.1199 H         1 UNK         0.0646 
     87 H87        23.5955  -29.8253  -43.9582 H         1 UNK         0.0847 
     88 H88        24.8983  -28.6661  -44.1138 H         1 UNK         0.0847 
     89 H89        23.4231  -28.4432  -45.0376 H         1 UNK         0.0847 
     90 H90        24.5551  -26.4741  -41.3272 H         1 UNK         0.3040 
     91 H91        24.7619  -28.2486  -39.0247 H         1 UNK         0.1015 
     92 H92        26.1200  -25.5648  -39.6800 H         1 UNK         0.0786 
     93 H93        26.1255  -26.3563  -38.1107 H         1 UNK         0.0786 
     94 H94        24.6181  -25.7529  -38.7752 H         1 UNK         0.0786 
     95 H95        26.8910  -28.8108  -38.1402 H         1 UNK         0.3172 
     96 H96        28.7849  -29.9057  -38.0870 H         1 UNK         0.0595 
     97 H97        29.5796  -28.6896  -40.7846 H         1 UNK         0.0839 
     98 H98        30.6411  -29.4895  -39.6408 H         1 UNK         0.0839 
     99 H99        29.8829  -27.9665  -39.2057 H         1 UNK         0.0839 
    100 H100       27.3366  -30.1334  -41.3194 H         1 UNK         0.2998 
    101 H101       27.8363  -32.9652  -41.7306 H         1 UNK         0.0822 
    102 H102       27.3072  -31.4216  -43.6215 H         1 UNK         0.0787 
    103 H103       26.0963  -32.6898  -43.5138 H         1 UNK         0.0787 
    104 H104       25.7249  -31.0756  -42.9229 H         1 UNK         0.0787 
    105 H105       25.4356  -31.0496  -40.0447 H         1 UNK         0.3055 
    106 H106       23.7791  -31.4305  -38.6246 H         1 UNK         0.1106 
    107 H107       23.8564  -33.4206  -37.1554 H         1 UNK         0.0828 
    108 H108       24.9854  -34.2238  -38.2348 H         1 UNK         0.0828 
    109 H109       25.4733  -32.7687  -37.3685 H         1 UNK         0.0828 
    110 H110       22.8584  -31.3448  -40.9841 H         1 UNK         0.2931 
    111 H111       21.5802  -33.6133  -42.0699 H         1 UNK         0.0412 
    112 H112       19.6520  -34.6840  -41.5647 H         1 UNK         0.3472 
    113 H113       18.4533  -34.0585  -40.4630 H         1 UNK         0.3472 
    114 H114       22.0457  -31.0775  -42.9722 H         1 UNK         0.0970 
    115 H115       20.3748  -30.8744  -42.6094 H         1 UNK         0.0970 
    116 H116       18.6932  -33.3276  -43.6380 H         1 UNK         0.0612 
    117 H117       18.7042  -33.1585  -45.3707 H         1 UNK         0.0612 
@<TRIPOS>BOND
     1    1    2 1    
     2    1   62 1    
     3    1   63 1    
     4    1   64 1    
     5    2    3 2    
     6    2    4 am   BACKBONE|DICT|INTERRES
     7    4    5 1    
     8    4   65 1    
     9    5    6 1    
    10    5   25 1    
    11    5   66 1    
    12    6    7 1    
    13    6   67 1    
    14    6   68 1    
    15    7    8 1    
    16    8    9 1    
    17    8   69 1    
    18    8   70 1    
    19    9   10 ar   
    20    9   14 ar   
    21   10   11 ar   
    22   10   71 1    
    23   11   12 ar   
    24   11   61 1    
    25   12   13 ar   
    26   12   72 1    
    27   13   14 ar   
    28   13   15 1    
    29   14   73 1    
    30   15   16 1    
    31   15   74 1    
    32   15   75 1    
    33   16   17 1    
    34   17   18 1    
    35   17   76 1    
    36   17   77 1    
    37   18   19 1    
    38   18   27 1    
    39   18   78 1    
    40   19   20 am   BACKBONE|DICT|INTERRES
    41   19   79 1    
    42   20   21 2    
    43   20   22 1    
    44   22   23 1    
    45   22   24 1    
    46   22   80 1    
    47   23   81 1    
    48   23   82 1    
    49   23   83 1    
    50   24   25 am   BACKBONE|DICT|INTERRES
    51   24   84 1    
    52   25   26 2    
    53   27   28 2    
    54   27   29 am   BACKBONE|DICT|INTERRES
    55   29   30 1    
    56   29   85 1    
    57   30   31 1    
    58   30   32 1    
    59   30   86 1    
    60   31   87 1    
    61   31   88 1    
    62   31   89 1    
    63   32   33 2    
    64   32   34 am   BACKBONE|DICT|INTERRES
    65   34   35 1    
    66   34   90 1    
    67   35   36 1    
    68   35   37 1    
    69   35   91 1    
    70   36   92 1    
    71   36   93 1    
    72   36   94 1    
    73   37   38 2    
    74   37   39 am   BACKBONE|DICT|INTERRES
    75   39   40 1    
    76   39   95 1    
    77   40   41 1    
    78   40   42 1    
    79   40   96 1    
    80   41   97 1    
    81   41   98 1    
    82   41   99 1    
    83   42   43 2    
    84   42   44 am   BACKBONE|DICT|INTERRES
    85   44   45 1    
    86   44  100 1    
    87   45   46 1    
    88   45   47 1    
    89   45  101 1    
    90   46  102 1    
    91   46  103 1    
    92   46  104 1    
    93   47   48 2    
    94   47   49 am   BACKBONE|DICT|INTERRES
    95   49   50 1    
    96   49  105 1    
    97   50   51 1    
    98   50   52 1    
    99   50  106 1    
   100   51  107 1    
   101   51  108 1    
   102   51  109 1    
   103   52   53 2    
   104   52   54 am   BACKBONE|DICT|INTERRES
   105   54   55 1    
   106   54  110 1    
   107   55   56 1    
   108   55   59 1    
   109   55  111 1    
   110   56   57 am   BACKBONE|DICT|INTERRES
   111   56   58 2    
   112   57  112 1    
   113   57  113 1    
   114   59   60 1    
   115   59  114 1    
   116   59  115 1    
   117   60   61 1    
   118   61  116 1    
   119   61  117 1    
@<TRIPOS>SUBSTRUCTURE
     1 UNK         1 GROUP             0       ****    0 ROOT    
