@<TRIPOS>MOLECULE
3R8
117   119    1
SMALL
USER_CHARGES


@<TRIPOS>ATOM
      1 CA         15.5096  -23.3183  -43.9425 C.3       0 UNK        -0.2013 
      2 C          16.5529  -24.4234  -43.9994 C.2       0 UNK         0.4866 
      3 O          17.2213  -24.5832  -45.0189 O.2       0 UNK        -0.5176 
      4 N          16.7201  -25.1714  -42.9018 N.am      1 UNK        -0.4884 
      5 CA         17.6104  -26.3361  -42.7582 C.3       1 UNK         0.0853 
      6 C6         17.1376  -27.2460  -41.5903 C.3       10 UNK        -0.0849 
      7 S7         15.5954  -28.1225  -42.0283 S.3       10 UNK        -0.2776 
      8 C8         16.1611  -29.8485  -42.2448 C.3       10 UNK         0.0316 
      9 C9         17.4178  -29.9607  -43.1011 C.ar      10 UNK        -0.0863 
     10 C10        18.6131  -30.4174  -42.5334 C.ar      10 UNK        -0.1009 
     11 C11        19.7839  -30.4691  -43.2944 C.ar      10 UNK        -0.0712 
     12 C12        19.7497  -30.0690  -44.6312 C.ar      10 UNK        -0.0894 
     13 C13        18.5690  -29.6048  -45.2088 C.ar      10 UNK        -0.0745 
     14 C14        17.3979  -29.5725  -44.4454 C.ar      10 UNK        -0.0972 
     15 C15        18.5728  -29.1041  -46.6436 C.3       10 UNK         0.0209 
     16 S16        18.8422  -27.3034  -46.6940 S.3       10 UNK        -0.2568 
     17 C17        20.5559  -27.1119  -47.3223 C.3       10 UNK        -0.0983 
     18 CA         21.6319  -26.6407  -46.2933 C.3       3 UNK         0.0876 
     19 N          21.0605  -25.7960  -45.2430 N.am      3 UNK        -0.4424 
     20 C          21.7353  -25.0571  -44.3541 C.2       2 UNK         0.4918 
     21 O          22.9564  -24.9010  -44.3815 O.2       2 UNK        -0.4875 
     22 CA         20.9124  -24.3528  -43.2550 C.3       2 UNK         0.0481 
     23 CB         20.9167  -22.8309  -43.4708 C.3       2 UNK        -0.1831 
     24 N          19.5220  -24.8141  -43.1741 N.am      2 UNK        -0.4498 
     25 C          19.1169  -25.9860  -42.6660 C.2       1 UNK         0.5027 
     26 O          19.8954  -26.7900  -42.1563 O.2       1 UNK        -0.4969 
     27 C          22.4604  -27.8157  -45.7262 C.2       3 UNK         0.5005 
     28 O          22.2872  -28.2034  -44.5685 O.2       3 UNK        -0.5279 
     29 N          23.3418  -28.3691  -46.5749 N.am      4 UNK        -0.4463 
     30 CA         24.2163  -29.5243  -46.3334 C.3       4 UNK         0.0283 
     31 CB         23.4064  -30.8376  -46.4194 C.3       4 UNK        -0.1875 
     32 C          25.0446  -29.3829  -45.0404 C.2       4 UNK         0.4949 
     33 O          25.9330  -28.5320  -44.9883 O.2       4 UNK        -0.5039 
     34 N          24.7421  -30.2073  -44.0289 N.am      5 UNK        -0.4663 
     35 CA         25.4056  -30.2185  -42.7239 C.3       5 UNK         0.0242 
     36 CB         25.1320  -31.5710  -42.0437 C.3       5 UNK        -0.1982 
     37 C          24.9962  -29.0612  -41.7924 C.2       5 UNK         0.5017 
     38 O          25.6414  -28.9052  -40.7559 O.2       5 UNK        -0.5012 
     39 N          23.9508  -28.2975  -42.1553 N.am      6 UNK        -0.4439 
     40 CA         23.2999  -27.2326  -41.3830 C.3       6 UNK         0.0297 
     41 CB         24.2610  -26.0622  -41.0919 C.3       6 UNK        -0.2006 
     42 C          22.6442  -27.7960  -40.1111 C.2       6 UNK         0.4892 
     43 O          23.2924  -27.8962  -39.0683 O.2       6 UNK        -0.5089 
     44 N          21.3761  -28.2053  -40.2449 N.am      7 UNK        -0.4243 
     45 CA         20.4906  -28.8446  -39.2590 C.3       7 UNK         0.0196 
     46 CB         20.2434  -27.9268  -38.0473 C.3       7 UNK        -0.2007 
     47 C          20.9143  -30.2556  -38.8073 C.2       7 UNK         0.5020 
     48 O          20.0436  -31.0983  -38.5919 O.2       7 UNK        -0.5147 
     49 N          22.2220  -30.5196  -38.7104 N.am      8 UNK        -0.4734 
     50 CA         22.8467  -31.7728  -38.2681 C.3       8 UNK         0.0238 
     51 CB         24.3018  -31.4667  -37.8649 C.3       8 UNK        -0.1912 
     52 C          22.7525  -32.9413  -39.2778 C.2       8 UNK         0.5038 
     53 O          23.7034  -33.7153  -39.4017 O.2       8 UNK        -0.5046 
     54 N          21.6157  -33.0589  -39.9716 N.am      9 UNK        -0.4200 
     55 CA         21.2886  -34.1494  -40.9056 C.3       9 UNK         0.0839 
     56 C          20.5091  -35.3177  -40.2353 C.2       9 UNK         0.5513 
     57 N          20.1256  -35.2284  -38.9666 N.am      9 UNK        -0.7519 
     58 O          20.2592  -36.3355  -40.8758 O.2       9 UNK        -0.4960 
     59 C59        20.5442  -33.6214  -42.1614 C.3       10 UNK        -0.0876 
     60 S60        21.6077  -32.5623  -43.1984 S.3       10 UNK        -0.2414 
     61 C61        21.1010  -30.9002  -42.6692 C.3       10 UNK         0.0169 
     62 H62        14.7571  -23.4749  -44.7149 H         1 UNK         0.0903 
     63 H63        15.0030  -23.2837  -42.9782 H         1 UNK         0.0903 
     64 H64        15.9783  -22.3498  -44.1150 H         1 UNK         0.0903 
     65 H65        16.1508  -24.9726  -42.0910 H         1 UNK         0.3096 
     66 H66        17.5339  -26.9136  -43.6815 H         1 UNK         0.1121 
     67 H67        16.9683  -26.6562  -40.6881 H         1 UNK         0.0849 
     68 H68        17.8868  -27.9864  -41.3112 H         1 UNK         0.0849 
     69 H69        16.3267  -30.2866  -41.2592 H         1 UNK         0.0865 
     70 H70        15.3606  -30.4298  -42.7044 H         1 UNK         0.0865 
     71 H71        18.6387  -30.7091  -41.4924 H         1 UNK         0.1346 
     72 H72        20.6533  -30.0902  -45.2187 H         1 UNK         0.1412 
     73 H73        16.4805  -29.2022  -44.8829 H         1 UNK         0.1426 
     74 H74        17.6135  -29.3281  -47.1123 H         1 UNK         0.0716 
     75 H75        19.3270  -29.6272  -47.2328 H         1 UNK         0.0716 
     76 H76        20.4910  -26.3553  -48.1057 H         1 UNK         0.0695 
     77 H77        20.8608  -28.0182  -47.8484 H         1 UNK         0.0695 
     78 H78        22.3447  -26.0108  -46.8305 H         1 UNK         0.0983 
     79 H79        20.0599  -25.8777  -45.1345 H         1 UNK         0.3095 
     80 H80        21.3990  -24.5615  -42.3001 H         1 UNK         0.0454 
     81 H81        21.9358  -22.4424  -43.4981 H         1 UNK         0.0851 
     82 H82        20.3974  -22.3137  -42.6640 H         1 UNK         0.0851 
     83 H83        20.4377  -22.5553  -44.4111 H         1 UNK         0.0851 
     84 H84        18.8223  -24.2511  -43.6420 H         1 UNK         0.2976 
     85 H85        23.4395  -27.9501  -47.4897 H         1 UNK         0.3116 
     86 H86        24.9378  -29.5362  -47.1518 H         1 UNK         0.0646 
     87 H87        22.6572  -30.9165  -45.6340 H         1 UNK         0.0847 
     88 H88        22.8890  -30.9178  -47.3754 H         1 UNK         0.0847 
     89 H89        24.0599  -31.7074  -46.3385 H         1 UNK         0.0847 
     90 H90        23.9848  -30.8634  -44.1562 H         1 UNK         0.3040 
     91 H91        26.4820  -30.1314  -42.8883 H         1 UNK         0.1015 
     92 H92        25.6964  -31.6634  -41.1148 H         1 UNK         0.0786 
     93 H93        25.4222  -32.4073  -42.6798 H         1 UNK         0.0786 
     94 H94        24.0783  -31.6890  -41.7912 H         1 UNK         0.0786 
     95 H95        23.5008  -28.4983  -43.0460 H         1 UNK         0.3172 
     96 H96        22.5096  -26.8434  -42.0240 H         1 UNK         0.0595 
     97 H97        25.0859  -26.3548  -40.4420 H         1 UNK         0.0839 
     98 H98        23.7338  -25.2467  -40.5958 H         1 UNK         0.0839 
     99 H99        24.6836  -25.6622  -42.0137 H         1 UNK         0.0839 
    100 H100       20.9234  -27.9891  -41.1317 H         1 UNK         0.2998 
    101 H101       19.5356  -28.9657  -39.7717 H         1 UNK         0.0822 
    102 H102       19.5025  -28.3619  -37.3752 H         1 UNK         0.0787 
    103 H103       19.8655  -26.9533  -38.3600 H         1 UNK         0.0787 
    104 H104       21.1512  -27.7642  -37.4657 H         1 UNK         0.0787 
    105 H105       22.8506  -29.7400  -38.8884 H         1 UNK         0.3055 
    106 H106       22.3194  -32.1060  -37.3716 H         1 UNK         0.1106 
    107 H107       24.3475  -30.6856  -37.1058 H         1 UNK         0.0828 
    108 H108       24.7928  -32.3465  -37.4468 H         1 UNK         0.0828 
    109 H109       24.8926  -31.1352  -38.7200 H         1 UNK         0.0828 
    110 H110       20.8667  -32.4126  -39.7467 H         1 UNK         0.2931 
    111 H111       22.2209  -34.5972  -41.2551 H         1 UNK         0.0412 
    112 H112       20.3210  -34.4003  -38.4272 H         1 UNK         0.3472 
    113 H113       19.6272  -35.9978  -38.5469 H         1 UNK         0.3472 
    114 H114       20.2211  -34.4505  -42.7938 H         1 UNK         0.0970 
    115 H115       19.6342  -33.0894  -41.8811 H         1 UNK         0.0970 
    116 H116       21.8807  -30.1940  -42.9501 H         1 UNK         0.0612 
    117 H117       21.0453  -30.8644  -41.5837 H         1 UNK         0.0612 
@<TRIPOS>BOND
     1    1    2 1    
     2    1   62 1    
     3    1   63 1    
     4    1   64 1    
     5    2    3 2    
     6    2    4 am   BACKBONE|DICT|INTERRES
     7    4    5 1    
     8    4   65 1    
     9    5    6 1    
    10    5   25 1    
    11    5   66 1    
    12    6    7 1    
    13    6   67 1    
    14    6   68 1    
    15    7    8 1    
    16    8    9 1    
    17    8   69 1    
    18    8   70 1    
    19    9   10 ar   
    20    9   14 ar   
    21   10   11 ar   
    22   10   71 1    
    23   11   12 ar   
    24   11   61 1    
    25   12   13 ar   
    26   12   72 1    
    27   13   14 ar   
    28   13   15 1    
    29   14   73 1    
    30   15   16 1    
    31   15   74 1    
    32   15   75 1    
    33   16   17 1    
    34   17   18 1    
    35   17   76 1    
    36   17   77 1    
    37   18   19 1    
    38   18   27 1    
    39   18   78 1    
    40   19   20 am   BACKBONE|DICT|INTERRES
    41   19   79 1    
    42   20   21 2    
    43   20   22 1    
    44   22   23 1    
    45   22   24 1    
    46   22   80 1    
    47   23   81 1    
    48   23   82 1    
    49   23   83 1    
    50   24   25 am   BACKBONE|DICT|INTERRES
    51   24   84 1    
    52   25   26 2    
    53   27   28 2    
    54   27   29 am   BACKBONE|DICT|INTERRES
    55   29   30 1    
    56   29   85 1    
    57   30   31 1    
    58   30   32 1    
    59   30   86 1    
    60   31   87 1    
    61   31   88 1    
    62   31   89 1    
    63   32   33 2    
    64   32   34 am   BACKBONE|DICT|INTERRES
    65   34   35 1    
    66   34   90 1    
    67   35   36 1    
    68   35   37 1    
    69   35   91 1    
    70   36   92 1    
    71   36   93 1    
    72   36   94 1    
    73   37   38 2    
    74   37   39 am   BACKBONE|DICT|INTERRES
    75   39   40 1    
    76   39   95 1    
    77   40   41 1    
    78   40   42 1    
    79   40   96 1    
    80   41   97 1    
    81   41   98 1    
    82   41   99 1    
    83   42   43 2    
    84   42   44 am   BACKBONE|DICT|INTERRES
    85   44   45 1    
    86   44  100 1    
    87   45   46 1    
    88   45   47 1    
    89   45  101 1    
    90   46  102 1    
    91   46  103 1    
    92   46  104 1    
    93   47   48 2    
    94   47   49 am   BACKBONE|DICT|INTERRES
    95   49   50 1    
    96   49  105 1    
    97   50   51 1    
    98   50   52 1    
    99   50  106 1    
   100   51  107 1    
   101   51  108 1    
   102   51  109 1    
   103   52   53 2    
   104   52   54 am   BACKBONE|DICT|INTERRES
   105   54   55 1    
   106   54  110 1    
   107   55   56 1    
   108   55   59 1    
   109   55  111 1    
   110   56   57 am   BACKBONE|DICT|INTERRES
   111   56   58 2    
   112   57  112 1    
   113   57  113 1    
   114   59   60 1    
   115   59  114 1    
   116   59  115 1    
   117   60   61 1    
   118   61  116 1    
   119   61  117 1    
@<TRIPOS>SUBSTRUCTURE
     1 UNK         1 GROUP             0       ****    0 ROOT    
