@<TRIPOS>MOLECULE
3R8
117   119    1
SMALL
USER_CHARGES


@<TRIPOS>ATOM
      1 CA         14.1863  -26.7850  -46.5205 C.3       0 UNK        -0.2013 
      2 C          15.6425  -26.5928  -46.1260 C.2       0 UNK         0.4866 
      3 O          16.5354  -26.8180  -46.9436 O.2       0 UNK        -0.5176 
      4 N          15.8947  -26.1601  -44.8843 N.am      1 UNK        -0.4884 
      5 CA         17.2235  -25.9532  -44.2897 C.3       1 UNK         0.0853 
      6 C6         17.1632  -25.9962  -42.7390 C.3       10 UNK        -0.0849 
      7 S7         16.5687  -27.5966  -42.0893 S.3       10 UNK        -0.2776 
      8 C8         18.0121  -28.1861  -41.1440 C.3       10 UNK         0.0316 
      9 C9         18.9994  -28.9495  -42.0163 C.ar      10 UNK        -0.0863 
     10 C10        18.9893  -30.3478  -42.0277 C.ar      10 UNK        -0.1009 
     11 C11        19.9240  -31.0686  -42.7860 C.ar      10 UNK        -0.0712 
     12 C12        20.8429  -30.3633  -43.5685 C.ar      10 UNK        -0.0894 
     13 C13        20.8592  -28.9666  -43.5722 C.ar      10 UNK        -0.0745 
     14 C14        19.9415  -28.2653  -42.7872 C.ar      10 UNK        -0.0972 
     15 C15        21.8751  -28.2101  -44.4094 C.3       10 UNK         0.0209 
     16 S16        21.1183  -27.5505  -45.9183 S.3       10 UNK        -0.2568 
     17 C17        22.3896  -26.3389  -46.4338 C.3       10 UNK        -0.0983 
     18 CA         22.0506  -24.8746  -46.0404 C.3       3 UNK         0.0876 
     19 N          20.6705  -24.5591  -46.4103 N.am      3 UNK        -0.4424 
     20 C          20.1327  -23.3534  -46.6181 C.2       2 UNK         0.4918 
     21 O          20.7731  -22.3029  -46.6260 O.2       2 UNK        -0.4875 
     22 CA         18.6015  -23.3290  -46.7994 C.3       2 UNK         0.0481 
     23 CB         18.2353  -23.3367  -48.2913 C.3       2 UNK        -0.1831 
     24 N          17.9231  -24.4480  -46.1266 N.am      2 UNK        -0.4498 
     25 C          17.9065  -24.6606  -44.8024 C.2       1 UNK         0.5027 
     26 O          18.4358  -23.8862  -44.0037 O.2       1 UNK        -0.4969 
     27 C          22.3757  -24.5834  -44.5523 C.2       3 UNK         0.5005 
     28 O          23.5252  -24.7687  -44.1510 O.2       3 UNK        -0.5279 
     29 N          21.3823  -24.1513  -43.7581 N.am      4 UNK        -0.4463 
     30 CA         21.4157  -23.8404  -42.3239 C.3       4 UNK         0.0283 
     31 CB         22.4799  -22.7822  -41.9671 C.3       4 UNK        -0.1875 
     32 C          21.5146  -25.0890  -41.4350 C.2       4 UNK         0.4949 
     33 O          20.5722  -25.3683  -40.6942 O.2       4 UNK        -0.5039 
     34 N          22.6265  -25.8251  -41.5262 N.am      5 UNK        -0.4663 
     35 CA         22.8904  -27.0457  -40.7644 C.3       5 UNK         0.0242 
     36 CB         23.3116  -26.6929  -39.3249 C.3       5 UNK        -0.1982 
     37 C          23.9804  -27.8655  -41.4634 C.2       5 UNK         0.5017 
     38 O          24.8082  -27.2963  -42.1784 O.2       5 UNK        -0.5012 
     39 N          23.9720  -29.1797  -41.2244 N.am      6 UNK        -0.4439 
     40 CA         24.9362  -30.1591  -41.7190 C.3       6 UNK         0.0297 
     41 CB         24.7305  -30.4204  -43.2258 C.3       6 UNK        -0.2006 
     42 C          24.7906  -31.4442  -40.8894 C.2       6 UNK         0.4892 
     43 O          23.9785  -31.4859  -39.9602 O.2       6 UNK        -0.5089 
     44 N          25.5900  -32.4602  -41.2379 N.am      7 UNK        -0.4243 
     45 CA         25.6002  -33.7920  -40.6273 C.3       7 UNK         0.0196 
     46 CB         26.8166  -34.5638  -41.1702 C.3       7 UNK        -0.2007 
     47 C          24.3014  -34.5883  -40.8654 C.2       7 UNK         0.5020 
     48 O          23.4700  -34.2042  -41.6913 O.2       7 UNK        -0.5147 
     49 N          24.1657  -35.7010  -40.1303 N.am      8 UNK        -0.4734 
     50 CA         23.0498  -36.6617  -40.0987 C.3       8 UNK         0.0238 
     51 CB         22.7511  -37.2579  -41.4893 C.3       8 UNK        -0.1912 
     52 C          21.7748  -36.1154  -39.4336 C.2       8 UNK         0.5038 
     53 O          21.1949  -36.8087  -38.5964 O.2       8 UNK        -0.5046 
     54 N          21.3760  -34.8904  -39.7895 N.am      9 UNK        -0.4200 
     55 CA         20.3076  -34.1301  -39.1289 C.3       9 UNK         0.0839 
     56 C          20.7076  -33.6708  -37.6991 C.2       9 UNK         0.5513 
     57 N          19.7326  -33.4666  -36.8238 N.am      9 UNK        -0.7519 
     58 O          21.8785  -33.4681  -37.3836 O.2       9 UNK        -0.4960 
     59 C59        19.8528  -32.9268  -39.9907 C.3       10 UNK        -0.0876 
     60 S60        19.0153  -33.4612  -41.5227 S.3       10 UNK        -0.2414 
     61 C61        19.9891  -32.5994  -42.8050 C.3       10 UNK         0.0169 
     62 H62        14.0121  -27.8193  -46.8155 H         1 UNK         0.0903 
     63 H63        13.5070  -26.5469  -45.7022 H         1 UNK         0.0903 
     64 H64        13.9386  -26.1431  -47.3655 H         1 UNK         0.0903 
     65 H65        15.1183  -25.9808  -44.2629 H         1 UNK         0.3096 
     66 H66        17.8663  -26.7764  -44.6117 H         1 UNK         0.1121 
     67 H67        16.5031  -25.2117  -42.3644 H         1 UNK         0.0849 
     68 H68        18.1423  -25.7833  -42.3068 H         1 UNK         0.0849 
     69 H69        18.5117  -27.3525  -40.6476 H         1 UNK         0.0865 
     70 H70        17.6538  -28.8315  -40.3405 H         1 UNK         0.0865 
     71 H71        18.2525  -30.8651  -41.4308 H         1 UNK         0.1346 
     72 H72        21.5520  -30.9077  -44.1765 H         1 UNK         0.1412 
     73 H73        19.9604  -27.1854  -42.7820 H         1 UNK         0.1426 
     74 H74        22.7103  -28.8530  -44.6863 H         1 UNK         0.0716 
     75 H75        22.2924  -27.3946  -43.8218 H         1 UNK         0.0716 
     76 H76        22.4645  -26.4024  -47.5204 H         1 UNK         0.0695 
     77 H77        23.3715  -26.6405  -46.0630 H         1 UNK         0.0695 
     78 H78        22.7054  -24.2172  -46.6166 H         1 UNK         0.0983 
     79 H79        20.0570  -25.3608  -46.4503 H         1 UNK         0.3095 
     80 H80        18.2317  -22.4005  -46.3599 H         1 UNK         0.0454 
     81 H81        18.5590  -24.2552  -48.7827 H         1 UNK         0.0851 
     82 H82        18.7071  -22.5033  -48.8137 H         1 UNK         0.0851 
     83 H83        17.1592  -23.2401  -48.4362 H         1 UNK         0.0851 
     84 H84        17.4713  -25.1463  -46.7120 H         1 UNK         0.2976 
     85 H85        20.4617  -24.0474  -44.1712 H         1 UNK         0.3116 
     86 H86        20.4451  -23.3888  -42.1113 H         1 UNK         0.0646 
     87 H87        22.3535  -21.8784  -42.5629 H         1 UNK         0.0847 
     88 H88        23.4968  -23.1439  -42.1198 H         1 UNK         0.0847 
     89 H89        22.3983  -22.4929  -40.9187 H         1 UNK         0.0847 
     90 H90        23.3298  -25.5776  -42.2190 H         1 UNK         0.3040 
     91 H91        21.9779  -27.6460  -40.7377 H         1 UNK         0.1015 
     92 H92        24.2043  -26.0664  -39.3115 H         1 UNK         0.0786 
     93 H93        23.5336  -27.5916  -38.7480 H         1 UNK         0.0786 
     94 H94        22.5212  -26.1601  -38.7959 H         1 UNK         0.0786 
     95 H95        23.3030  -29.5773  -40.5742 H         1 UNK         0.3172 
     96 H96        25.9424  -29.7691  -41.5530 H         1 UNK         0.0595 
     97 H97        23.7549  -30.8625  -43.4229 H         1 UNK         0.0839 
     98 H98        25.4816  -31.1050  -43.6202 H         1 UNK         0.0839 
     99 H99        24.8136  -29.5028  -43.8073 H         1 UNK         0.0839 
    100 H100       26.2050  -32.3320  -42.0277 H         1 UNK         0.2998 
    101 H101       25.7178  -33.6604  -39.5494 H         1 UNK         0.0822 
    102 H102       27.7460  -34.0276  -40.9768 H         1 UNK         0.0787 
    103 H103       26.9114  -35.5431  -40.6995 H         1 UNK         0.0787 
    104 H104       26.7410  -34.7272  -42.2462 H         1 UNK         0.0787 
    105 H105       24.9040  -35.9038  -39.4693 H         1 UNK         0.3055 
    106 H106       23.3935  -37.4833  -39.4674 H         1 UNK         0.1106 
    107 H107       22.3476  -36.5160  -42.1788 H         1 UNK         0.0828 
    108 H108       22.0146  -38.0590  -41.4153 H         1 UNK         0.0828 
    109 H109       23.6478  -37.6830  -41.9401 H         1 UNK         0.0828 
    110 H110       21.9313  -34.3986  -40.4818 H         1 UNK         0.2931 
    111 H111       19.4551  -34.8040  -39.0188 H         1 UNK         0.0412 
    112 H112       18.7677  -33.6267  -37.0700 H         1 UNK         0.3472 
    113 H113       19.9664  -33.1573  -35.8929 H         1 UNK         0.3472 
    114 H114       20.7034  -32.2833  -40.2257 H         1 UNK         0.0970 
    115 H115       19.1460  -32.3023  -39.4410 H         1 UNK         0.0970 
    116 H116       21.0288  -32.9188  -42.7131 H         1 UNK         0.0612 
    117 H117       19.6446  -32.9451  -43.7803 H         1 UNK         0.0612 
@<TRIPOS>BOND
     1    1    2 1    
     2    1   62 1    
     3    1   63 1    
     4    1   64 1    
     5    2    3 2    
     6    2    4 am   BACKBONE|DICT|INTERRES
     7    4    5 1    
     8    4   65 1    
     9    5    6 1    
    10    5   25 1    
    11    5   66 1    
    12    6    7 1    
    13    6   67 1    
    14    6   68 1    
    15    7    8 1    
    16    8    9 1    
    17    8   69 1    
    18    8   70 1    
    19    9   10 ar   
    20    9   14 ar   
    21   10   11 ar   
    22   10   71 1    
    23   11   12 ar   
    24   11   61 1    
    25   12   13 ar   
    26   12   72 1    
    27   13   14 ar   
    28   13   15 1    
    29   14   73 1    
    30   15   16 1    
    31   15   74 1    
    32   15   75 1    
    33   16   17 1    
    34   17   18 1    
    35   17   76 1    
    36   17   77 1    
    37   18   19 1    
    38   18   27 1    
    39   18   78 1    
    40   19   20 am   BACKBONE|DICT|INTERRES
    41   19   79 1    
    42   20   21 2    
    43   20   22 1    
    44   22   23 1    
    45   22   24 1    
    46   22   80 1    
    47   23   81 1    
    48   23   82 1    
    49   23   83 1    
    50   24   25 am   BACKBONE|DICT|INTERRES
    51   24   84 1    
    52   25   26 2    
    53   27   28 2    
    54   27   29 am   BACKBONE|DICT|INTERRES
    55   29   30 1    
    56   29   85 1    
    57   30   31 1    
    58   30   32 1    
    59   30   86 1    
    60   31   87 1    
    61   31   88 1    
    62   31   89 1    
    63   32   33 2    
    64   32   34 am   BACKBONE|DICT|INTERRES
    65   34   35 1    
    66   34   90 1    
    67   35   36 1    
    68   35   37 1    
    69   35   91 1    
    70   36   92 1    
    71   36   93 1    
    72   36   94 1    
    73   37   38 2    
    74   37   39 am   BACKBONE|DICT|INTERRES
    75   39   40 1    
    76   39   95 1    
    77   40   41 1    
    78   40   42 1    
    79   40   96 1    
    80   41   97 1    
    81   41   98 1    
    82   41   99 1    
    83   42   43 2    
    84   42   44 am   BACKBONE|DICT|INTERRES
    85   44   45 1    
    86   44  100 1    
    87   45   46 1    
    88   45   47 1    
    89   45  101 1    
    90   46  102 1    
    91   46  103 1    
    92   46  104 1    
    93   47   48 2    
    94   47   49 am   BACKBONE|DICT|INTERRES
    95   49   50 1    
    96   49  105 1    
    97   50   51 1    
    98   50   52 1    
    99   50  106 1    
   100   51  107 1    
   101   51  108 1    
   102   51  109 1    
   103   52   53 2    
   104   52   54 am   BACKBONE|DICT|INTERRES
   105   54   55 1    
   106   54  110 1    
   107   55   56 1    
   108   55   59 1    
   109   55  111 1    
   110   56   57 am   BACKBONE|DICT|INTERRES
   111   56   58 2    
   112   57  112 1    
   113   57  113 1    
   114   59   60 1    
   115   59  114 1    
   116   59  115 1    
   117   60   61 1    
   118   61  116 1    
   119   61  117 1    
@<TRIPOS>SUBSTRUCTURE
     1 UNK         1 GROUP             0       ****    0 ROOT    
