@<TRIPOS>MOLECULE
3R8
117   119    1
SMALL
USER_CHARGES


@<TRIPOS>ATOM
      1 CA         18.0945  -23.2021  -41.0228 C.3       0 UNK        -0.2013 
      2 C          18.0101  -23.3938  -42.5293 C.2       0 UNK         0.4866 
      3 O          18.5482  -22.5822  -43.2835 O.2       0 UNK        -0.5176 
      4 N          17.3390  -24.4626  -42.9757 N.am      1 UNK        -0.4884 
      5 CA         17.2212  -24.8800  -44.3754 C.3       1 UNK         0.0853 
      6 C6         16.0073  -25.8306  -44.6203 C.3       10 UNK        -0.0849 
      7 S7         15.6223  -27.0223  -43.2797 S.3       10 UNK        -0.2776 
      8 C8         15.4148  -28.6080  -44.1616 C.3       10 UNK         0.0316 
      9 C9         16.6995  -29.4232  -44.1554 C.ar      10 UNK        -0.0863 
     10 C10        17.0149  -30.2275  -43.0558 C.ar      10 UNK        -0.1009 
     11 C11        18.2273  -30.9204  -43.0132 C.ar      10 UNK        -0.0712 
     12 C12        19.1147  -30.8230  -44.0873 C.ar      10 UNK        -0.0894 
     13 C13        18.8117  -30.0291  -45.2024 C.ar      10 UNK        -0.0745 
     14 C14        17.5887  -29.3511  -45.2308 C.ar      10 UNK        -0.0972 
     15 C15        19.7624  -29.8566  -46.3911 C.3       10 UNK         0.0209 
     16 S16        21.3872  -30.6779  -46.2292 S.3       10 UNK        -0.2568 
     17 C17        22.6395  -29.3552  -46.0329 C.3       10 UNK        -0.0983 
     18 CA         22.4148  -28.1839  -45.0359 C.3       3 UNK         0.0876 
     19 N          21.6737  -27.0695  -45.6370 N.am      3 UNK        -0.4424 
     20 C          21.6318  -25.8122  -45.1714 C.2       2 UNK         0.4918 
     21 O          22.2116  -25.4444  -44.1497 O.2       2 UNK        -0.4875 
     22 CA         20.7647  -24.8017  -45.9477 C.3       2 UNK         0.0481 
     23 CB         20.5313  -25.1956  -47.4237 C.3       2 UNK        -0.1831 
     24 N          19.4790  -24.5361  -45.2894 N.am      2 UNK        -0.4498 
     25 C          18.5604  -25.4358  -44.9060 C.2       1 UNK         0.5027 
     26 O          18.7458  -26.6489  -44.9533 O.2       1 UNK        -0.4969 
     27 C          21.9419  -28.5948  -43.6200 C.2       3 UNK         0.5005 
     28 O          22.6688  -29.3100  -42.9259 O.2       3 UNK        -0.5279 
     29 N          20.7938  -28.0662  -43.1677 N.am      4 UNK        -0.4463 
     30 CA         20.3552  -28.0956  -41.7704 C.3       4 UNK         0.0283 
     31 CB         18.9596  -27.4714  -41.6562 C.3       4 UNK        -0.1875 
     32 C          21.3180  -27.3553  -40.8282 C.2       4 UNK         0.4949 
     33 O          21.5594  -27.8326  -39.7208 O.2       4 UNK        -0.5039 
     34 N          21.8802  -26.2262  -41.2886 N.am      5 UNK        -0.4663 
     35 CA         22.8568  -25.4283  -40.5381 C.3       5 UNK         0.0242 
     36 CB         22.9708  -24.0307  -41.1671 C.3       5 UNK        -0.1982 
     37 C          24.2359  -26.1054  -40.4569 C.2       5 UNK         0.5017 
     38 O          24.9766  -25.8580  -39.5055 O.2       5 UNK        -0.5012 
     39 N          24.5362  -26.9715  -41.4347 N.am      6 UNK        -0.4439 
     40 CA         25.7037  -27.8555  -41.4478 C.3       6 UNK         0.0297 
     41 CB         26.0395  -28.2198  -42.9045 C.3       6 UNK        -0.2006 
     42 C          25.4963  -29.1303  -40.6045 C.2       6 UNK         0.4892 
     43 O          26.4599  -29.8729  -40.4132 O.2       6 UNK        -0.5089 
     44 N          24.2604  -29.3642  -40.1308 N.am      7 UNK        -0.4243 
     45 CA         23.7924  -30.5271  -39.3702 C.3       7 UNK         0.0196 
     46 CB         24.4454  -30.5704  -37.9721 C.3       7 UNK        -0.2007 
     47 C          23.9451  -31.8423  -40.1564 C.2       7 UNK         0.5020 
     48 O          24.4206  -32.8383  -39.6091 O.2       7 UNK        -0.5147 
     49 N          23.5519  -31.8188  -41.4387 N.am      8 UNK        -0.4734 
     50 CA         23.6615  -32.9615  -42.3522 C.3       8 UNK         0.0238 
     51 CB         23.4199  -32.4781  -43.7879 C.3       8 UNK        -0.1912 
     52 C          22.7203  -34.1336  -42.0165 C.2       8 UNK         0.5038 
     53 O          23.0492  -35.2744  -42.3454 O.2       8 UNK        -0.5046 
     54 N          21.5762  -33.8403  -41.3848 N.am      9 UNK        -0.4200 
     55 CA         20.6059  -34.8381  -40.9112 C.3       9 UNK         0.0839 
     56 C          21.1395  -35.5997  -39.6695 C.2       9 UNK         0.5513 
     57 N          21.0205  -36.9216  -39.6493 N.am      9 UNK        -0.7519 
     58 O          21.6121  -34.9964  -38.7072 O.2       9 UNK        -0.4960 
     59 C59        19.2228  -34.2058  -40.6089 C.3       10 UNK        -0.0876 
     60 S60        18.4335  -33.5176  -42.1023 S.3       10 UNK        -0.2414 
     61 C61        18.6133  -31.7374  -41.7916 C.3       10 UNK         0.0169 
     62 H62        19.1356  -23.2218  -40.7013 H         1 UNK         0.0903 
     63 H63        17.6685  -22.2392  -40.7424 H         1 UNK         0.0903 
     64 H64        17.5579  -23.9814  -40.4818 H         1 UNK         0.0903 
     65 H65        16.9086  -25.0990  -42.3182 H         1 UNK         0.3096 
     66 H66        17.0216  -23.9822  -44.9656 H         1 UNK         0.1121 
     67 H67        15.1123  -25.2189  -44.7429 H         1 UNK         0.0849 
     68 H68        16.1142  -26.3586  -45.5697 H         1 UNK         0.0849 
     69 H69        14.6249  -29.1777  -43.6698 H         1 UNK         0.0865 
     70 H70        15.0664  -28.4368  -45.1811 H         1 UNK         0.0865 
     71 H71        16.3334  -30.2823  -42.2179 H         1 UNK         0.1346 
     72 H72        20.0486  -31.3609  -44.0267 H         1 UNK         0.1412 
     73 H73        17.3494  -28.7207  -46.0762 H         1 UNK         0.1426 
     74 H74        19.2730  -30.2756  -47.2713 H         1 UNK         0.0716 
     75 H75        19.8958  -28.7972  -46.6021 H         1 UNK         0.0716 
     76 H76        23.5573  -29.8694  -45.7429 H         1 UNK         0.0695 
     77 H77        22.8540  -28.9557  -47.0254 H         1 UNK         0.0695 
     78 H78        23.4110  -27.7720  -44.8586 H         1 UNK         0.0983 
     79 H79        21.1270  -27.2879  -46.4556 H         1 UNK         0.3095 
     80 H80        21.3158  -23.8602  -45.9421 H         1 UNK         0.0454 
     81 H81        19.8969  -26.0767  -47.5259 H         1 UNK         0.0851 
     82 H82        20.0486  -24.3845  -47.9689 H         1 UNK         0.0851 
     83 H83        21.4742  -25.4009  -47.9327 H         1 UNK         0.0851 
     84 H84        19.2860  -23.5642  -45.0738 H         1 UNK         0.2976 
     85 H85        20.2102  -27.5478  -43.8179 H         1 UNK         0.3116 
     86 H86        20.3007  -29.1399  -41.4587 H         1 UNK         0.0646 
     87 H87        18.5444  -27.6169  -40.6584 H         1 UNK         0.0847 
     88 H88        18.2691  -27.9176  -42.3668 H         1 UNK         0.0847 
     89 H89        18.9828  -26.3998  -41.8501 H         1 UNK         0.0847 
     90 H90        21.6817  -25.9231  -42.2371 H         1 UNK         0.3040 
     91 H91        22.4891  -25.3125  -39.5158 H         1 UNK         0.1015 
     92 H92        22.0008  -23.5354  -41.2159 H         1 UNK         0.0786 
     93 H93        23.3778  -24.0726  -42.1780 H         1 UNK         0.0786 
     94 H94        23.6314  -23.3928  -40.5784 H         1 UNK         0.0786 
     95 H95        23.8536  -27.1096  -42.1658 H         1 UNK         0.3172 
     96 H96        26.5566  -27.3185  -41.0275 H         1 UNK         0.0595 
     97 H97        26.9621  -28.7995  -42.9558 H         1 UNK         0.0839 
     98 H98        26.1846  -27.3294  -43.5164 H         1 UNK         0.0839 
     99 H99        25.2566  -28.8233  -43.3640 H         1 UNK         0.0839 
    100 H100       23.5411  -28.6875  -40.3503 H         1 UNK         0.2998 
    101 H101       22.7203  -30.3845  -39.2256 H         1 UNK         0.0822 
    102 H102       24.2955  -29.6330  -37.4364 H         1 UNK         0.0787 
    103 H103       24.0107  -31.3643  -37.3635 H         1 UNK         0.0787 
    104 H104       25.5183  -30.7565  -38.0300 H         1 UNK         0.0787 
    105 H105       23.2131  -30.9461  -41.8366 H         1 UNK         0.3055 
    106 H106       24.6835  -33.3424  -42.2887 H         1 UNK         0.1106 
    107 H107       23.5263  -33.2942  -44.5039 H         1 UNK         0.0828 
    108 H108       22.4153  -32.0722  -43.9005 H         1 UNK         0.0828 
    109 H109       24.1296  -31.7010  -44.0716 H         1 UNK         0.0828 
    110 H110       21.4061  -32.8821  -41.1244 H         1 UNK         0.2931 
    111 H111       20.4646  -35.5624  -41.7168 H         1 UNK         0.0412 
    112 H112       21.3453  -37.4314  -38.8420 H         1 UNK         0.3472 
    113 H113       20.6243  -37.4227  -40.4316 H         1 UNK         0.3472 
    114 H114       19.3048  -33.4393  -39.8357 H         1 UNK         0.0970 
    115 H115       18.5433  -34.9608  -40.2082 H         1 UNK         0.0970 
    116 H116       19.6479  -31.5174  -41.5255 H         1 UNK         0.0612 
    117 H117       18.0040  -31.4571  -40.9310 H         1 UNK         0.0612 
@<TRIPOS>BOND
     1    1    2 1    
     2    1   62 1    
     3    1   63 1    
     4    1   64 1    
     5    2    3 2    
     6    2    4 am   BACKBONE|DICT|INTERRES
     7    4    5 1    
     8    4   65 1    
     9    5    6 1    
    10    5   25 1    
    11    5   66 1    
    12    6    7 1    
    13    6   67 1    
    14    6   68 1    
    15    7    8 1    
    16    8    9 1    
    17    8   69 1    
    18    8   70 1    
    19    9   10 ar   
    20    9   14 ar   
    21   10   11 ar   
    22   10   71 1    
    23   11   12 ar   
    24   11   61 1    
    25   12   13 ar   
    26   12   72 1    
    27   13   14 ar   
    28   13   15 1    
    29   14   73 1    
    30   15   16 1    
    31   15   74 1    
    32   15   75 1    
    33   16   17 1    
    34   17   18 1    
    35   17   76 1    
    36   17   77 1    
    37   18   19 1    
    38   18   27 1    
    39   18   78 1    
    40   19   20 am   BACKBONE|DICT|INTERRES
    41   19   79 1    
    42   20   21 2    
    43   20   22 1    
    44   22   23 1    
    45   22   24 1    
    46   22   80 1    
    47   23   81 1    
    48   23   82 1    
    49   23   83 1    
    50   24   25 am   BACKBONE|DICT|INTERRES
    51   24   84 1    
    52   25   26 2    
    53   27   28 2    
    54   27   29 am   BACKBONE|DICT|INTERRES
    55   29   30 1    
    56   29   85 1    
    57   30   31 1    
    58   30   32 1    
    59   30   86 1    
    60   31   87 1    
    61   31   88 1    
    62   31   89 1    
    63   32   33 2    
    64   32   34 am   BACKBONE|DICT|INTERRES
    65   34   35 1    
    66   34   90 1    
    67   35   36 1    
    68   35   37 1    
    69   35   91 1    
    70   36   92 1    
    71   36   93 1    
    72   36   94 1    
    73   37   38 2    
    74   37   39 am   BACKBONE|DICT|INTERRES
    75   39   40 1    
    76   39   95 1    
    77   40   41 1    
    78   40   42 1    
    79   40   96 1    
    80   41   97 1    
    81   41   98 1    
    82   41   99 1    
    83   42   43 2    
    84   42   44 am   BACKBONE|DICT|INTERRES
    85   44   45 1    
    86   44  100 1    
    87   45   46 1    
    88   45   47 1    
    89   45  101 1    
    90   46  102 1    
    91   46  103 1    
    92   46  104 1    
    93   47   48 2    
    94   47   49 am   BACKBONE|DICT|INTERRES
    95   49   50 1    
    96   49  105 1    
    97   50   51 1    
    98   50   52 1    
    99   50  106 1    
   100   51  107 1    
   101   51  108 1    
   102   51  109 1    
   103   52   53 2    
   104   52   54 am   BACKBONE|DICT|INTERRES
   105   54   55 1    
   106   54  110 1    
   107   55   56 1    
   108   55   59 1    
   109   55  111 1    
   110   56   57 am   BACKBONE|DICT|INTERRES
   111   56   58 2    
   112   57  112 1    
   113   57  113 1    
   114   59   60 1    
   115   59  114 1    
   116   59  115 1    
   117   60   61 1    
   118   61  116 1    
   119   61  117 1    
@<TRIPOS>SUBSTRUCTURE
     1 UNK         1 GROUP             0       ****    0 ROOT    
