@<TRIPOS>MOLECULE
3R8
117   119    1
SMALL
USER_CHARGES


@<TRIPOS>ATOM
      1 CA         14.0872  -23.0494  -45.2524 C.3       0 UNK        -0.2013 
      2 C          15.3336  -23.6053  -44.5796 C.2       0 UNK         0.4866 
      3 O          15.9281  -22.9220  -43.7460 O.2       0 UNK        -0.5176 
      4 N          15.7239  -24.8362  -44.9420 N.am      1 UNK        -0.4884 
      5 CA         16.8899  -25.5761  -44.4349 C.3       1 UNK         0.0853 
      6 C6         16.7891  -25.9693  -42.9339 C.3       10 UNK        -0.0849 
      7 S7         15.2819  -26.8964  -42.4746 S.3       10 UNK        -0.2776 
      8 C8         15.3020  -28.3496  -43.5829 C.3       10 UNK         0.0316 
      9 C9         16.6137  -29.1287  -43.5618 C.ar      10 UNK        -0.0863 
     10 C10        17.1614  -29.5769  -42.3540 C.ar      10 UNK        -0.1009 
     11 C11        18.3568  -30.3014  -42.3425 C.ar      10 UNK        -0.0712 
     12 C12        18.9969  -30.5906  -43.5500 C.ar      10 UNK        -0.0894 
     13 C13        18.4590  -30.1568  -44.7644 C.ar      10 UNK        -0.0745 
     14 C14        17.2662  -29.4278  -44.7635 C.ar      10 UNK        -0.0972 
     15 C15        19.1576  -30.4954  -46.0758 C.3       10 UNK         0.0209 
     16 S16        19.8818  -29.0322  -46.8855 S.3       10 UNK        -0.2568 
     17 C17        21.1382  -28.5208  -45.6649 C.3       10 UNK        -0.0983 
     18 CA         21.7770  -27.1399  -45.9782 C.3       3 UNK         0.0876 
     19 N          20.7400  -26.1268  -46.1862 N.am      3 UNK        -0.4424 
     20 C          20.9072  -24.8532  -46.5610 C.2       2 UNK         0.4918 
     21 O          21.9960  -24.3686  -46.8732 O.2       2 UNK        -0.4875 
     22 CA         19.6405  -23.9697  -46.6208 C.3       2 UNK         0.0481 
     23 CB         19.3531  -23.5362  -48.0681 C.3       2 UNK        -0.1831 
     24 N          18.4324  -24.6003  -46.0680 N.am      2 UNK        -0.4498 
     25 C          18.2124  -24.8501  -44.7677 C.2       1 UNK         0.5027 
     26 O          18.9981  -24.5369  -43.8720 O.2       1 UNK        -0.4969 
     27 C          22.7398  -26.7586  -44.8316 C.2       3 UNK         0.5005 
     28 O          22.4074  -25.9217  -43.9861 O.2       3 UNK        -0.5279 
     29 N          23.8807  -27.4589  -44.7524 N.am      4 UNK        -0.4463 
     30 CA         24.7750  -27.4693  -43.5883 C.3       4 UNK         0.0283 
     31 CB         26.1518  -28.0134  -44.0120 C.3       4 UNK        -0.1875 
     32 C          24.1455  -28.2971  -42.4507 C.2       4 UNK         0.4949 
     33 O          24.6116  -29.3973  -42.1522 O.2       4 UNK        -0.5039 
     34 N          23.0460  -27.7779  -41.8885 N.am      5 UNK        -0.4663 
     35 CA         22.0893  -28.4857  -41.0324 C.3       5 UNK         0.0242 
     36 CB         20.9609  -27.5261  -40.6241 C.3       5 UNK        -0.1982 
     37 C          22.6867  -29.1856  -39.8020 C.2       5 UNK         0.5017 
     38 O          22.2116  -30.2598  -39.4361 O.2       5 UNK        -0.5012 
     39 N          23.7376  -28.5908  -39.2221 N.am      6 UNK        -0.4439 
     40 CA         24.4943  -29.1368  -38.0916 C.3       6 UNK         0.0297 
     41 CB         25.4612  -28.0620  -37.5684 C.3       6 UNK        -0.2006 
     42 C          25.2594  -30.4364  -38.4130 C.2       6 UNK         0.4892 
     43 O          25.5615  -31.1899  -37.4868 O.2       6 UNK        -0.5089 
     44 N          25.5661  -30.6690  -39.6964 N.am      7 UNK        -0.4243 
     45 CA         26.1973  -31.8895  -40.1970 C.3       7 UNK         0.0196 
     46 CB         27.3475  -31.5101  -41.1450 C.3       7 UNK        -0.2007 
     47 C          25.1790  -32.7804  -40.9232 C.2       7 UNK         0.5020 
     48 O          25.2487  -34.0026  -40.7933 O.2       7 UNK        -0.5147 
     49 N          24.2680  -32.1640  -41.6901 N.am      8 UNK        -0.4734 
     50 CA         23.2777  -32.8499  -42.5233 C.3       8 UNK         0.0238 
     51 CB         22.6813  -31.8524  -43.5285 C.3       8 UNK        -0.1912 
     52 C          22.1730  -33.5705  -41.7295 C.2       8 UNK         0.5038 
     53 O          21.6944  -34.6042  -42.1986 O.2       8 UNK        -0.5046 
     54 N          21.8032  -33.0391  -40.5575 N.am      9 UNK        -0.4200 
     55 CA         20.8935  -33.6785  -39.5952 C.3       9 UNK         0.0839 
     56 C          21.6725  -34.0802  -38.3172 C.2       9 UNK         0.5513 
     57 N          21.2523  -35.1456  -37.6485 N.am      9 UNK        -0.7519 
     58 O          22.6266  -33.4247  -37.9047 O.2       9 UNK        -0.4960 
     59 C59        19.6855  -32.7733  -39.2368 C.3       10 UNK        -0.0876 
     60 S60        18.5754  -32.4880  -40.6580 S.3       10 UNK        -0.2414 
     61 C61        18.9734  -30.7580  -41.0305 C.3       10 UNK         0.0169 
     62 H62        13.6568  -23.7536  -45.9641 H         1 UNK         0.0903 
     63 H63        13.3292  -22.8191  -44.5041 H         1 UNK         0.0903 
     64 H64        14.3277  -22.1311  -45.7875 H         1 UNK         0.0903 
     65 H65        15.1751  -25.3274  -45.6343 H         1 UNK         0.3096 
     66 H66        16.9306  -26.5033  -45.0065 H         1 UNK         0.1121 
     67 H67        16.8284  -25.0772  -42.3064 H         1 UNK         0.0849 
     68 H68        17.6515  -26.5727  -42.6434 H         1 UNK         0.0849 
     69 H69        14.4959  -29.0218  -43.2862 H         1 UNK         0.0865 
     70 H70        15.0591  -28.0217  -44.5945 H         1 UNK         0.0865 
     71 H71        16.6590  -29.3550  -41.4223 H         1 UNK         0.1346 
     72 H72        19.9112  -31.1640  -43.5414 H         1 UNK         0.1412 
     73 H73        16.8472  -29.1001  -45.7053 H         1 UNK         0.1426 
     74 H74        18.4370  -30.9521  -46.7556 H         1 UNK         0.0716 
     75 H75        19.9412  -31.2385  -45.9193 H         1 UNK         0.0716 
     76 H76        20.6685  -28.4980  -44.6793 H         1 UNK         0.0695 
     77 H77        21.8998  -29.3017  -45.6228 H         1 UNK         0.0695 
     78 H78        22.3573  -27.2110  -46.9004 H         1 UNK         0.0983 
     79 H79        19.8037  -26.4269  -45.9681 H         1 UNK         0.3095 
     80 H80        19.8490  -23.0727  -46.0344 H         1 UNK         0.0454 
     81 H81        20.2106  -23.0180  -48.4998 H         1 UNK         0.0851 
     82 H82        19.1335  -24.3904  -48.7097 H         1 UNK         0.0851 
     83 H83        18.5073  -22.8503  -48.1179 H         1 UNK         0.0851 
     84 H84        17.7219  -24.8675  -46.7348 H         1 UNK         0.2976 
     85 H85        24.0763  -28.1466  -45.4662 H         1 UNK         0.3116 
     86 H86        24.9114  -26.4476  -43.2274 H         1 UNK         0.0646 
     87 H87        26.8402  -28.0308  -43.1659 H         1 UNK         0.0847 
     88 H88        26.6046  -27.3909  -44.7838 H         1 UNK         0.0847 
     89 H89        26.0866  -29.0320  -44.3970 H         1 UNK         0.0847 
     90 H90        22.7317  -26.8888  -42.2679 H         1 UNK         0.3040 
     91 H91        21.6538  -29.2626  -41.6581 H         1 UNK         0.1015 
     92 H92        20.4323  -27.1417  -41.4972 H         1 UNK         0.0786 
     93 H93        21.3413  -26.6742  -40.0593 H         1 UNK         0.0786 
     94 H94        20.2232  -28.0301  -39.9981 H         1 UNK         0.0786 
     95 H95        24.0578  -27.7159  -39.6121 H         1 UNK         0.3172 
     96 H96        23.7808  -29.3696  -37.2983 H         1 UNK         0.0595 
     97 H97        24.9274  -27.1656  -37.2519 H         1 UNK         0.0839 
     98 H98        26.1907  -27.7715  -38.3255 H         1 UNK         0.0839 
     99 H99        26.0180  -28.4261  -36.7036 H         1 UNK         0.0839 
    100 H100       25.2598  -30.0035  -40.3988 H         1 UNK         0.2998 
    101 H101       26.6164  -32.4693  -39.3717 H         1 UNK         0.0822 
    102 H102       28.1059  -30.9212  -40.6290 H         1 UNK         0.0787 
    103 H103       27.8396  -32.4010  -41.5374 H         1 UNK         0.0787 
    104 H104       26.9957  -30.9280  -41.9981 H         1 UNK         0.0787 
    105 H105       24.3237  -31.1529  -41.7911 H         1 UNK         0.3055 
    106 H106       23.8062  -33.6181  -43.0927 H         1 UNK         0.1106 
    107 H107       22.1772  -31.0294  -43.0255 H         1 UNK         0.0828 
    108 H108       23.4541  -31.4262  -44.1685 H         1 UNK         0.0828 
    109 H109       21.9554  -32.3403  -44.1802 H         1 UNK         0.0828 
    110 H110       22.2628  -32.2000  -40.2208 H         1 UNK         0.2931 
    111 H111       20.4941  -34.5997  -40.0244 H         1 UNK         0.0412 
    112 H112       21.7365  -35.4175  -36.8068 H         1 UNK         0.3472 
    113 H113       20.4657  -35.6883  -37.9709 H         1 UNK         0.3472 
    114 H114       20.0259  -31.8212  -38.8250 H         1 UNK         0.0970 
    115 H115       19.0841  -33.2374  -38.4527 H         1 UNK         0.0970 
    116 H116       18.6446  -30.1219  -40.2074 H         1 UNK         0.0612 
    117 H117       20.0554  -30.6645  -41.0856 H         1 UNK         0.0612 
@<TRIPOS>BOND
     1    1    2 1    
     2    1   62 1    
     3    1   63 1    
     4    1   64 1    
     5    2    3 2    
     6    2    4 am   BACKBONE|DICT|INTERRES
     7    4    5 1    
     8    4   65 1    
     9    5    6 1    
    10    5   25 1    
    11    5   66 1    
    12    6    7 1    
    13    6   67 1    
    14    6   68 1    
    15    7    8 1    
    16    8    9 1    
    17    8   69 1    
    18    8   70 1    
    19    9   10 ar   
    20    9   14 ar   
    21   10   11 ar   
    22   10   71 1    
    23   11   12 ar   
    24   11   61 1    
    25   12   13 ar   
    26   12   72 1    
    27   13   14 ar   
    28   13   15 1    
    29   14   73 1    
    30   15   16 1    
    31   15   74 1    
    32   15   75 1    
    33   16   17 1    
    34   17   18 1    
    35   17   76 1    
    36   17   77 1    
    37   18   19 1    
    38   18   27 1    
    39   18   78 1    
    40   19   20 am   BACKBONE|DICT|INTERRES
    41   19   79 1    
    42   20   21 2    
    43   20   22 1    
    44   22   23 1    
    45   22   24 1    
    46   22   80 1    
    47   23   81 1    
    48   23   82 1    
    49   23   83 1    
    50   24   25 am   BACKBONE|DICT|INTERRES
    51   24   84 1    
    52   25   26 2    
    53   27   28 2    
    54   27   29 am   BACKBONE|DICT|INTERRES
    55   29   30 1    
    56   29   85 1    
    57   30   31 1    
    58   30   32 1    
    59   30   86 1    
    60   31   87 1    
    61   31   88 1    
    62   31   89 1    
    63   32   33 2    
    64   32   34 am   BACKBONE|DICT|INTERRES
    65   34   35 1    
    66   34   90 1    
    67   35   36 1    
    68   35   37 1    
    69   35   91 1    
    70   36   92 1    
    71   36   93 1    
    72   36   94 1    
    73   37   38 2    
    74   37   39 am   BACKBONE|DICT|INTERRES
    75   39   40 1    
    76   39   95 1    
    77   40   41 1    
    78   40   42 1    
    79   40   96 1    
    80   41   97 1    
    81   41   98 1    
    82   41   99 1    
    83   42   43 2    
    84   42   44 am   BACKBONE|DICT|INTERRES
    85   44   45 1    
    86   44  100 1    
    87   45   46 1    
    88   45   47 1    
    89   45  101 1    
    90   46  102 1    
    91   46  103 1    
    92   46  104 1    
    93   47   48 2    
    94   47   49 am   BACKBONE|DICT|INTERRES
    95   49   50 1    
    96   49  105 1    
    97   50   51 1    
    98   50   52 1    
    99   50  106 1    
   100   51  107 1    
   101   51  108 1    
   102   51  109 1    
   103   52   53 2    
   104   52   54 am   BACKBONE|DICT|INTERRES
   105   54   55 1    
   106   54  110 1    
   107   55   56 1    
   108   55   59 1    
   109   55  111 1    
   110   56   57 am   BACKBONE|DICT|INTERRES
   111   56   58 2    
   112   57  112 1    
   113   57  113 1    
   114   59   60 1    
   115   59  114 1    
   116   59  115 1    
   117   60   61 1    
   118   61  116 1    
   119   61  117 1    
@<TRIPOS>SUBSTRUCTURE
     1 UNK         1 GROUP             0       ****    0 ROOT    
