@<TRIPOS>MOLECULE
3R8
117   119    1
SMALL
USER_CHARGES


@<TRIPOS>ATOM
      1 CA         14.7922  -23.1287  -46.5651 C.3       0 UNK        -0.2013 
      2 C          16.2256  -23.5810  -46.7993 C.2       0 UNK         0.4866 
      3 O          17.0475  -22.7943  -47.2697 O.2       0 UNK        -0.5176 
      4 N          16.5328  -24.8435  -46.4747 N.am      1 UNK        -0.4884 
      5 CA         17.8571  -25.4567  -46.6549 C.3       1 UNK         0.0853 
      6 C6         17.8055  -26.9999  -46.5326 C.3       10 UNK        -0.0849 
      7 S7         16.5505  -27.8121  -47.5799 S.3       10 UNK        -0.2776 
      8 C8         17.0354  -29.5713  -47.4376 C.3       10 UNK         0.0316 
      9 C9         17.4120  -29.9736  -46.0143 C.ar      10 UNK        -0.0863 
     10 C10        18.6944  -30.4558  -45.7341 C.ar      10 UNK        -0.1009 
     11 C11        19.0791  -30.7682  -44.4256 C.ar      10 UNK        -0.0712 
     12 C12        18.1506  -30.5944  -43.3888 C.ar      10 UNK        -0.0894 
     13 C13        16.8707  -30.0992  -43.6540 C.ar      10 UNK        -0.0745 
     14 C14        16.4984  -29.8158  -44.9697 C.ar      10 UNK        -0.0972 
     15 C15        15.8969  -29.8243  -42.5203 C.3       10 UNK         0.0209 
     16 S16        15.9970  -28.0834  -41.9886 S.3       10 UNK        -0.2568 
     17 C17        17.4219  -28.1074  -40.8477 C.3       10 UNK        -0.0983 
     18 CA         18.7431  -27.5905  -41.4733 C.3       3 UNK         0.0876 
     19 N          18.6169  -26.2379  -42.0242 N.am      3 UNK        -0.4424 
     20 C          19.5897  -25.5600  -42.6494 C.2       2 UNK         0.4918 
     21 O          20.7308  -25.9922  -42.8209 O.2       2 UNK        -0.4875 
     22 CA         19.1716  -24.2045  -43.2462 C.3       2 UNK         0.0481 
     23 CB         20.3529  -23.2271  -43.4276 C.3       2 UNK        -0.1831 
     24 N          18.4348  -24.4306  -44.4953 N.am      2 UNK        -0.4498 
     25 C          18.9060  -24.9372  -45.6483 C.2       1 UNK         0.5027 
     26 O          20.1004  -25.0643  -45.9197 O.2       1 UNK        -0.4969 
     27 C          19.8826  -27.6840  -40.4381 C.2       3 UNK         0.5005 
     28 O          19.9125  -26.8905  -39.4941 O.2       3 UNK        -0.5279 
     29 N          20.7809  -28.6579  -40.6386 N.am      4 UNK        -0.4463 
     30 CA         21.9398  -28.9878  -39.8021 C.3       4 UNK         0.0283 
     31 CB         21.4926  -29.5129  -38.4220 C.3       4 UNK        -0.1875 
     32 C          23.0051  -27.8766  -39.7004 C.2       4 UNK         0.4949 
     33 O          23.7881  -27.8735  -38.7483 O.2       4 UNK        -0.5039 
     34 N          23.0572  -26.9680  -40.6860 N.am      5 UNK        -0.4663 
     35 CA         24.0795  -25.9246  -40.8051 C.3       5 UNK         0.0242 
     36 CB         23.5821  -24.8325  -41.7687 C.3       5 UNK        -0.1982 
     37 C          25.4220  -26.5318  -41.2520 C.2       5 UNK         0.5017 
     38 O          25.7354  -26.5184  -42.4437 O.2       5 UNK        -0.5012 
     39 N          26.1584  -27.0910  -40.2805 N.am      6 UNK        -0.4439 
     40 CA         27.4081  -27.8481  -40.4286 C.3       6 UNK         0.0297 
     41 CB         28.5469  -26.9518  -40.9618 C.3       6 UNK        -0.2006 
     42 C          27.2127  -29.1394  -41.2489 C.2       6 UNK         0.4892 
     43 O          28.0283  -29.4539  -42.1179 O.2       6 UNK        -0.5089 
     44 N          26.1264  -29.8619  -40.9526 N.am      7 UNK        -0.4243 
     45 CA         25.7406  -31.1208  -41.5813 C.3       7 UNK         0.0196 
     46 CB         24.8759  -30.8321  -42.8220 C.3       7 UNK        -0.2007 
     47 C          24.9655  -31.9593  -40.5605 C.2       7 UNK         0.5020 
     48 O          24.3728  -31.3975  -39.6372 O.2       7 UNK        -0.5147 
     49 N          24.9683  -33.2839  -40.7490 N.am      8 UNK        -0.4734 
     50 CA         24.1896  -34.2203  -39.9311 C.3       8 UNK         0.0238 
     51 CB         24.8617  -35.6034  -39.9542 C.3       8 UNK        -0.1912 
     52 C          22.7273  -34.3242  -40.3967 C.2       8 UNK         0.5038 
     53 O          21.8413  -34.5022  -39.5604 O.2       8 UNK        -0.5046 
     54 N          22.5132  -34.2210  -41.7170 N.am      9 UNK        -0.4200 
     55 CA         21.2125  -34.3089  -42.4074 C.3       9 UNK         0.0839 
     56 C          20.4995  -35.6920  -42.2909 C.2       9 UNK         0.5513 
     57 N          21.2051  -36.7716  -41.9751 N.am      9 UNK        -0.7519 
     58 O          19.2978  -35.8004  -42.5214 O.2       9 UNK        -0.4960 
     59 C59        20.2689  -33.1128  -42.0897 C.3       10 UNK        -0.0876 
     60 S60        21.0329  -31.4989  -42.4681 S.3       10 UNK        -0.2414 
     61 C61        20.5138  -31.2561  -44.2019 C.3       10 UNK         0.0169 
     62 H62        14.1757  -23.9250  -46.1483 H         1 UNK         0.0903 
     63 H63        14.7724  -22.2869  -45.8735 H         1 UNK         0.0903 
     64 H64        14.3421  -22.8087  -47.5044 H         1 UNK         0.0903 
     65 H65        15.8120  -25.4612  -46.1274 H         1 UNK         0.3096 
     66 H66        18.2136  -25.2028  -47.6559 H         1 UNK         0.1121 
     67 H67        17.6050  -27.2813  -45.4964 H         1 UNK         0.0849 
     68 H68        18.7793  -27.4285  -46.7800 H         1 UNK         0.0849 
     69 H69        16.2110  -30.1973  -47.7815 H         1 UNK         0.0865 
     70 H70        17.8652  -29.7570  -48.1213 H         1 UNK         0.0865 
     71 H71        19.4090  -30.5707  -46.5381 H         1 UNK         0.1346 
     72 H72        18.4176  -30.8121  -42.3655 H         1 UNK         0.1412 
     73 H73        15.5125  -29.4214  -45.1762 H         1 UNK         0.1426 
     74 H74        16.0767  -30.4933  -41.6775 H         1 UNK         0.0716 
     75 H75        14.8790  -30.0292  -42.8556 H         1 UNK         0.0716 
     76 H76        17.5527  -29.1215  -40.4654 H         1 UNK         0.0695 
     77 H77        17.1531  -27.4983  -39.9823 H         1 UNK         0.0695 
     78 H78        18.9961  -28.2328  -42.3179 H         1 UNK         0.0983 
     79 H79        17.7044  -25.8164  -41.9352 H         1 UNK         0.3095 
     80 H80        18.4706  -23.7389  -42.5515 H         1 UNK         0.0454 
     81 H81        21.1521  -23.6459  -44.0391 H         1 UNK         0.0851 
     82 H82        20.7915  -22.9739  -42.4621 H         1 UNK         0.0851 
     83 H83        20.0292  -22.2957  -43.8915 H         1 UNK         0.0851 
     84 H84        17.4293  -24.3657  -44.4195 H         1 UNK         0.2976 
     85 H85        20.6727  -29.2506  -41.4521 H         1 UNK         0.3116 
     86 H86        22.4336  -29.8124  -40.3151 H         1 UNK         0.0646 
     87 H87        21.0435  -28.7267  -37.8148 H         1 UNK         0.0847 
     88 H88        22.3408  -29.9119  -37.8640 H         1 UNK         0.0847 
     89 H89        20.7678  -30.3208  -38.5211 H         1 UNK         0.0847 
     90 H90        22.3750  -27.0171  -41.4325 H         1 UNK         0.3040 
     91 H91        24.2248  -25.4587  -39.8277 H         1 UNK         0.1015 
     92 H92        23.3792  -25.2296  -42.7643 H         1 UNK         0.0786 
     93 H93        24.3238  -24.0403  -41.8779 H         1 UNK         0.0786 
     94 H94        22.6657  -24.3709  -41.4012 H         1 UNK         0.0786 
     95 H95        25.7387  -27.1172  -39.3573 H         1 UNK         0.3172 
     96 H96        27.6894  -28.1684  -39.4243 H         1 UNK         0.0595 
     97 H97        28.3702  -26.6366  -41.9905 H         1 UNK         0.0839 
     98 H98        29.4994  -27.4828  -40.9466 H         1 UNK         0.0839 
     99 H99        28.6668  -26.0564  -40.3520 H         1 UNK         0.0839 
    100 H100       25.5287  -29.5788  -40.1852 H         1 UNK         0.2998 
    101 H101       26.6362  -31.6731  -41.8748 H         1 UNK         0.0822 
    102 H102       25.4278  -30.2540  -43.5634 H         1 UNK         0.0787 
    103 H103       24.5540  -31.7556  -43.3047 H         1 UNK         0.0787 
    104 H104       23.9781  -30.2691  -42.5627 H         1 UNK         0.0787 
    105 H105       25.5004  -33.6717  -41.5156 H         1 UNK         0.3055 
    106 H106       24.1787  -33.8686  -38.8963 H         1 UNK         0.1106 
    107 H107       24.3068  -36.3163  -39.3424 H         1 UNK         0.0828 
    108 H108       24.9178  -36.0139  -40.9630 H         1 UNK         0.0828 
    109 H109       25.8747  -35.5573  -39.5542 H         1 UNK         0.0828 
    110 H110       23.3111  -34.0779  -42.3164 H         1 UNK         0.2931 
    111 H111       21.4587  -34.2356  -43.4672 H         1 UNK         0.0412 
    112 H112       20.7401  -37.6639  -41.9123 H         1 UNK         0.3472 
    113 H113       22.1940  -36.7036  -41.7970 H         1 UNK         0.3472 
    114 H114       19.9838  -33.1223  -41.0366 H         1 UNK         0.0970 
    115 H115       19.3374  -33.1954  -42.6524 H         1 UNK         0.0970 
    116 H116       20.6651  -32.1866  -44.7507 H         1 UNK         0.0612 
    117 H117       21.1947  -30.5270  -44.6436 H         1 UNK         0.0612 
@<TRIPOS>BOND
     1    1    2 1    
     2    1   62 1    
     3    1   63 1    
     4    1   64 1    
     5    2    3 2    
     6    2    4 am   BACKBONE|DICT|INTERRES
     7    4    5 1    
     8    4   65 1    
     9    5    6 1    
    10    5   25 1    
    11    5   66 1    
    12    6    7 1    
    13    6   67 1    
    14    6   68 1    
    15    7    8 1    
    16    8    9 1    
    17    8   69 1    
    18    8   70 1    
    19    9   10 ar   
    20    9   14 ar   
    21   10   11 ar   
    22   10   71 1    
    23   11   12 ar   
    24   11   61 1    
    25   12   13 ar   
    26   12   72 1    
    27   13   14 ar   
    28   13   15 1    
    29   14   73 1    
    30   15   16 1    
    31   15   74 1    
    32   15   75 1    
    33   16   17 1    
    34   17   18 1    
    35   17   76 1    
    36   17   77 1    
    37   18   19 1    
    38   18   27 1    
    39   18   78 1    
    40   19   20 am   BACKBONE|DICT|INTERRES
    41   19   79 1    
    42   20   21 2    
    43   20   22 1    
    44   22   23 1    
    45   22   24 1    
    46   22   80 1    
    47   23   81 1    
    48   23   82 1    
    49   23   83 1    
    50   24   25 am   BACKBONE|DICT|INTERRES
    51   24   84 1    
    52   25   26 2    
    53   27   28 2    
    54   27   29 am   BACKBONE|DICT|INTERRES
    55   29   30 1    
    56   29   85 1    
    57   30   31 1    
    58   30   32 1    
    59   30   86 1    
    60   31   87 1    
    61   31   88 1    
    62   31   89 1    
    63   32   33 2    
    64   32   34 am   BACKBONE|DICT|INTERRES
    65   34   35 1    
    66   34   90 1    
    67   35   36 1    
    68   35   37 1    
    69   35   91 1    
    70   36   92 1    
    71   36   93 1    
    72   36   94 1    
    73   37   38 2    
    74   37   39 am   BACKBONE|DICT|INTERRES
    75   39   40 1    
    76   39   95 1    
    77   40   41 1    
    78   40   42 1    
    79   40   96 1    
    80   41   97 1    
    81   41   98 1    
    82   41   99 1    
    83   42   43 2    
    84   42   44 am   BACKBONE|DICT|INTERRES
    85   44   45 1    
    86   44  100 1    
    87   45   46 1    
    88   45   47 1    
    89   45  101 1    
    90   46  102 1    
    91   46  103 1    
    92   46  104 1    
    93   47   48 2    
    94   47   49 am   BACKBONE|DICT|INTERRES
    95   49   50 1    
    96   49  105 1    
    97   50   51 1    
    98   50   52 1    
    99   50  106 1    
   100   51  107 1    
   101   51  108 1    
   102   51  109 1    
   103   52   53 2    
   104   52   54 am   BACKBONE|DICT|INTERRES
   105   54   55 1    
   106   54  110 1    
   107   55   56 1    
   108   55   59 1    
   109   55  111 1    
   110   56   57 am   BACKBONE|DICT|INTERRES
   111   56   58 2    
   112   57  112 1    
   113   57  113 1    
   114   59   60 1    
   115   59  114 1    
   116   59  115 1    
   117   60   61 1    
   118   61  116 1    
   119   61  117 1    
@<TRIPOS>SUBSTRUCTURE
     1 UNK         1 GROUP             0       ****    0 ROOT    
