@<TRIPOS>MOLECULE
3R8
117   119    1
SMALL
USER_CHARGES


@<TRIPOS>ATOM
      1 CA         13.3557  -23.9299  -44.0214 C.3       0 UNK        -0.2013 
      2 C          14.2001  -25.1128  -44.4698 C.2       0 UNK         0.4866 
      3 O          14.1572  -26.1680  -43.8369 O.2       0 UNK        -0.5176 
      4 N          14.9786  -24.9411  -45.5476 N.am      1 UNK        -0.4884 
      5 CA         15.8732  -25.9204  -46.1880 C.3       1 UNK         0.0853 
      6 C6         15.1499  -27.2242  -46.6242 C.3       10 UNK        -0.0849 
      7 S7         15.9680  -28.0432  -48.0351 S.3       10 UNK        -0.2776 
      8 C8         16.3352  -29.7035  -47.3715 C.3       10 UNK         0.0316 
      9 C9         17.6004  -29.7630  -46.5195 C.ar      10 UNK        -0.0863 
     10 C10        17.5495  -30.2592  -45.2112 C.ar      10 UNK        -0.1009 
     11 C11        18.7198  -30.4167  -44.4587 C.ar      10 UNK        -0.0712 
     12 C12        19.9469  -30.0783  -45.0365 C.ar      10 UNK        -0.0894 
     13 C13        20.0132  -29.5411  -46.3223 C.ar      10 UNK        -0.0745 
     14 C14        18.8363  -29.3939  -47.0630 C.ar      10 UNK        -0.0972 
     15 C15        21.3590  -29.1524  -46.9193 C.3       10 UNK         0.0209 
     16 S16        21.8328  -27.4398  -46.5080 S.3       10 UNK        -0.2568 
     17 C17        22.4911  -27.5805  -44.8080 C.3       10 UNK        -0.0983 
     18 CA         21.7093  -26.7124  -43.7908 C.3       3 UNK         0.0876 
     19 N          20.2962  -27.0961  -43.7105 N.am      3 UNK        -0.4424 
     20 C          19.3222  -26.3579  -43.1644 C.2       2 UNK         0.4918 
     21 O          19.4802  -25.2263  -42.7026 O.2       2 UNK        -0.4875 
     22 CA         17.9382  -27.0247  -43.1063 C.3       2 UNK         0.0481 
     23 CB         17.3400  -26.9321  -41.6928 C.3       2 UNK        -0.1831 
     24 N          16.9645  -26.5203  -44.0755 N.am      2 UNK        -0.4498 
     25 C          17.1456  -26.2265  -45.3715 C.2       1 UNK         0.5027 
     26 O          18.2363  -26.1921  -45.9399 O.2       1 UNK        -0.4969 
     27 C          22.3995  -26.7186  -42.4065 C.2       3 UNK         0.5005 
     28 O          23.4267  -26.0576  -42.2482 O.2       3 UNK        -0.5279 
     29 N          21.8119  -27.4334  -41.4318 N.am      4 UNK        -0.4463 
     30 CA         22.1788  -27.4909  -40.0146 C.3       4 UNK         0.0283 
     31 CB         21.9356  -26.1249  -39.3328 C.3       4 UNK        -0.1875 
     32 C          23.5890  -28.0690  -39.8067 C.2       4 UNK         0.4949 
     33 O          23.8230  -29.2124  -40.2070 O.2       4 UNK        -0.5039 
     34 N          24.4929  -27.2980  -39.1851 N.am      5 UNK        -0.4663 
     35 CA         25.8661  -27.6608  -38.8079 C.3       5 UNK         0.0242 
     36 CB         26.3785  -26.6373  -37.7770 C.3       5 UNK        -0.1982 
     37 C          26.8281  -27.8259  -40.0059 C.2       5 UNK         0.5017 
     38 O          27.9023  -27.2228  -40.0374 O.2       5 UNK        -0.5012 
     39 N          26.4176  -28.6598  -40.9604 N.am      6 UNK        -0.4439 
     40 CA         27.1566  -29.0945  -42.1397 C.3       6 UNK         0.0297 
     41 CB         27.0757  -28.0389  -43.2580 C.3       6 UNK        -0.2006 
     42 C          26.6040  -30.4495  -42.5961 C.2       6 UNK         0.4892 
     43 O          27.3764  -31.3904  -42.7786 O.2       6 UNK        -0.5089 
     44 N          25.2729  -30.5296  -42.7369 N.am      7 UNK        -0.4243 
     45 CA         24.5467  -31.7533  -43.0848 C.3       7 UNK         0.0196 
     46 CB         23.2562  -31.3658  -43.8169 C.3       7 UNK        -0.2007 
     47 C          24.2046  -32.6210  -41.8621 C.2       7 UNK         0.5020 
     48 O          24.0045  -33.8238  -42.0300 O.2       7 UNK        -0.5147 
     49 N          24.1234  -31.9986  -40.6753 N.am      8 UNK        -0.4734 
     50 CA         23.6868  -32.5634  -39.3940 C.3       8 UNK         0.0238 
     51 CB         24.6101  -33.7115  -38.9306 C.3       8 UNK        -0.1912 
     52 C          22.1970  -32.9478  -39.4369 C.2       8 UNK         0.5038 
     53 O          21.8516  -34.1174  -39.2570 O.2       8 UNK        -0.5046 
     54 N          21.3469  -31.9424  -39.6940 N.am      9 UNK        -0.4200 
     55 CA         19.8790  -32.0674  -39.7689 C.3       9 UNK         0.0839 
     56 C          19.1842  -32.5390  -38.4566 C.2       9 UNK         0.5513 
     57 N          19.8003  -32.3959  -37.2891 N.am      9 UNK        -0.7519 
     58 O          18.0631  -33.0384  -38.5030 O.2       9 UNK        -0.4960 
     59 C59        19.2030  -30.7635  -40.2726 C.3       10 UNK        -0.0876 
     60 S60        19.8235  -30.1769  -41.8831 S.3       10 UNK        -0.2414 
     61 C61        18.6431  -30.9668  -43.0345 C.3       10 UNK         0.0169 
     62 H62        13.4901  -23.0626  -44.6676 H         1 UNK         0.0903 
     63 H63        12.2998  -24.1990  -44.0309 H         1 UNK         0.0903 
     64 H64        13.6245  -23.6411  -43.0057 H         1 UNK         0.0903 
     65 H65        14.9803  -24.0316  -45.9905 H         1 UNK         0.3096 
     66 H66        16.2135  -25.4160  -47.0946 H         1 UNK         0.1121 
     67 H67        14.1337  -26.9917  -46.9465 H         1 UNK         0.0849 
     68 H68        15.0401  -27.9176  -45.7881 H         1 UNK         0.0849 
     69 H69        15.4694  -30.0734  -46.8199 H         1 UNK         0.0865 
     70 H70        16.4633  -30.3855  -48.2132 H         1 UNK         0.0865 
     71 H71        16.5980  -30.5451  -44.7838 H         1 UNK         0.1346 
     72 H72        20.8564  -30.2248  -44.4785 H         1 UNK         0.1412 
     73 H73        18.8817  -29.0026  -48.0702 H         1 UNK         0.1426 
     74 H74        21.3162  -29.2451  -48.0055 H         1 UNK         0.0716 
     75 H75        22.1380  -29.8424  -46.5926 H         1 UNK         0.0716 
     76 H76        23.5370  -27.2691  -44.8443 H         1 UNK         0.0695 
     77 H77        22.5023  -28.6228  -44.4948 H         1 UNK         0.0695 
     78 H78        21.7428  -25.6787  -44.1424 H         1 UNK         0.0983 
     79 H79        20.0480  -27.9744  -44.1452 H         1 UNK         0.3095 
     80 H80        18.0630  -28.0821  -43.3271 H         1 UNK         0.0454 
     81 H81        18.0372  -27.3168  -40.9471 H         1 UNK         0.0851 
     82 H82        16.4243  -27.5177  -41.6096 H         1 UNK         0.0851 
     83 H83        17.1055  -25.9021  -41.4215 H         1 UNK         0.0851 
     84 H84        15.9999  -26.4816  -43.7553 H         1 UNK         0.2976 
     85 H85        21.0096  -27.9917  -41.6909 H         1 UNK         0.3116 
     86 H86        21.4960  -28.2070  -39.5551 H         1 UNK         0.0646 
     87 H87        22.5720  -25.3379  -39.7390 H         1 UNK         0.0847 
     88 H88        22.1146  -26.1799  -38.2581 H         1 UNK         0.0847 
     89 H89        20.9016  -25.8053  -39.4640 H         1 UNK         0.0847 
     90 H90        24.2099  -26.3584  -38.9473 H         1 UNK         0.3040 
     91 H91        25.8267  -28.6330  -38.3112 H         1 UNK         0.1015 
     92 H92        26.4437  -25.6351  -38.2025 H         1 UNK         0.0786 
     93 H93        27.3734  -26.9052  -37.4182 H         1 UNK         0.0786 
     94 H94        25.7266  -26.5908  -36.9044 H         1 UNK         0.0786 
     95 H95        25.5056  -29.0842  -40.8087 H         1 UNK         0.3172 
     96 H96        28.2040  -29.2371  -41.8649 H         1 UNK         0.0595 
     97 H97        26.0442  -27.8092  -43.5283 H         1 UNK         0.0839 
     98 H98        27.5831  -28.3850  -44.1594 H         1 UNK         0.0839 
     99 H99        27.5537  -27.1069  -42.9561 H         1 UNK         0.0839 
    100 H100       24.7147  -29.7026  -42.5836 H         1 UNK         0.2998 
    101 H101       25.1567  -32.3564  -43.7612 H         1 UNK         0.0822 
    102 H102       23.4727  -30.8183  -44.7337 H         1 UNK         0.0787 
    103 H103       22.6800  -32.2494  -44.0958 H         1 UNK         0.0787 
    104 H104       22.6204  -30.7468  -43.1835 H         1 UNK         0.0787 
    105 H105       24.2308  -30.9887  -40.6667 H         1 UNK         0.3055 
    106 H106       23.7768  -31.7623  -38.6579 H         1 UNK         0.1106 
    107 H107       24.3412  -34.0419  -37.9266 H         1 UNK         0.0828 
    108 H108       24.5449  -34.5829  -39.5824 H         1 UNK         0.0828 
    109 H109       25.6521  -33.3937  -38.8992 H         1 UNK         0.0828 
    110 H110       21.7228  -31.0218  -39.8662 H         1 UNK         0.2931 
    111 H111       19.6782  -32.8433  -40.5103 H         1 UNK         0.0412 
    112 H112       19.3404  -32.7063  -36.4474 H         1 UNK         0.3472 
    113 H113       20.7185  -31.9851  -37.2394 H         1 UNK         0.3472 
    114 H114       18.1210  -30.8929  -40.3421 H         1 UNK         0.0970 
    115 H115       19.3548  -29.9612  -39.5481 H         1 UNK         0.0970 
    116 H116       18.8318  -32.0407  -43.0564 H         1 UNK         0.0612 
    117 H117       17.6329  -30.8307  -42.6455 H         1 UNK         0.0612 
@<TRIPOS>BOND
     1    1    2 1    
     2    1   62 1    
     3    1   63 1    
     4    1   64 1    
     5    2    3 2    
     6    2    4 am   BACKBONE|DICT|INTERRES
     7    4    5 1    
     8    4   65 1    
     9    5    6 1    
    10    5   25 1    
    11    5   66 1    
    12    6    7 1    
    13    6   67 1    
    14    6   68 1    
    15    7    8 1    
    16    8    9 1    
    17    8   69 1    
    18    8   70 1    
    19    9   10 ar   
    20    9   14 ar   
    21   10   11 ar   
    22   10   71 1    
    23   11   12 ar   
    24   11   61 1    
    25   12   13 ar   
    26   12   72 1    
    27   13   14 ar   
    28   13   15 1    
    29   14   73 1    
    30   15   16 1    
    31   15   74 1    
    32   15   75 1    
    33   16   17 1    
    34   17   18 1    
    35   17   76 1    
    36   17   77 1    
    37   18   19 1    
    38   18   27 1    
    39   18   78 1    
    40   19   20 am   BACKBONE|DICT|INTERRES
    41   19   79 1    
    42   20   21 2    
    43   20   22 1    
    44   22   23 1    
    45   22   24 1    
    46   22   80 1    
    47   23   81 1    
    48   23   82 1    
    49   23   83 1    
    50   24   25 am   BACKBONE|DICT|INTERRES
    51   24   84 1    
    52   25   26 2    
    53   27   28 2    
    54   27   29 am   BACKBONE|DICT|INTERRES
    55   29   30 1    
    56   29   85 1    
    57   30   31 1    
    58   30   32 1    
    59   30   86 1    
    60   31   87 1    
    61   31   88 1    
    62   31   89 1    
    63   32   33 2    
    64   32   34 am   BACKBONE|DICT|INTERRES
    65   34   35 1    
    66   34   90 1    
    67   35   36 1    
    68   35   37 1    
    69   35   91 1    
    70   36   92 1    
    71   36   93 1    
    72   36   94 1    
    73   37   38 2    
    74   37   39 am   BACKBONE|DICT|INTERRES
    75   39   40 1    
    76   39   95 1    
    77   40   41 1    
    78   40   42 1    
    79   40   96 1    
    80   41   97 1    
    81   41   98 1    
    82   41   99 1    
    83   42   43 2    
    84   42   44 am   BACKBONE|DICT|INTERRES
    85   44   45 1    
    86   44  100 1    
    87   45   46 1    
    88   45   47 1    
    89   45  101 1    
    90   46  102 1    
    91   46  103 1    
    92   46  104 1    
    93   47   48 2    
    94   47   49 am   BACKBONE|DICT|INTERRES
    95   49   50 1    
    96   49  105 1    
    97   50   51 1    
    98   50   52 1    
    99   50  106 1    
   100   51  107 1    
   101   51  108 1    
   102   51  109 1    
   103   52   53 2    
   104   52   54 am   BACKBONE|DICT|INTERRES
   105   54   55 1    
   106   54  110 1    
   107   55   56 1    
   108   55   59 1    
   109   55  111 1    
   110   56   57 am   BACKBONE|DICT|INTERRES
   111   56   58 2    
   112   57  112 1    
   113   57  113 1    
   114   59   60 1    
   115   59  114 1    
   116   59  115 1    
   117   60   61 1    
   118   61  116 1    
   119   61  117 1    
@<TRIPOS>SUBSTRUCTURE
     1 UNK         1 GROUP             0       ****    0 ROOT    
