@<TRIPOS>MOLECULE
3R8
117   119    1
SMALL
USER_CHARGES


@<TRIPOS>ATOM
      1 CA         18.3459  -25.4154  -39.7863 C.3       0 UNK        -0.2013 
      2 C          17.2867  -25.4505  -40.8784 C.2       0 UNK         0.4866 
      3 O          16.1336  -25.0956  -40.6308 O.2       0 UNK        -0.5176 
      4 N          17.6740  -25.8766  -42.0813 N.am      1 UNK        -0.4884 
      5 CA         16.8267  -25.9977  -43.2682 C.3       1 UNK         0.0853 
      6 C6         16.1758  -27.4093  -43.3875 C.3       10 UNK        -0.0849 
      7 S7         17.3701  -28.7872  -43.2327 S.3       10 UNK        -0.2776 
      8 C8         16.8031  -29.9855  -44.4810 C.3       10 UNK         0.0316 
      9 C9         17.9840  -30.8030  -44.9789 C.ar      10 UNK        -0.0863 
     10 C10        18.1366  -32.1523  -44.6475 C.ar      10 UNK        -0.1009 
     11 C11        19.2575  -32.8667  -45.0896 C.ar      10 UNK        -0.0712 
     12 C12        20.2353  -32.2141  -45.8539 C.ar      10 UNK        -0.0894 
     13 C13        20.0850  -30.8657  -46.1951 C.ar      10 UNK        -0.0745 
     14 C14        18.9474  -30.1814  -45.7708 C.ar      10 UNK        -0.0972 
     15 C15        21.1203  -30.1310  -47.0390 C.3       10 UNK         0.0209 
     16 S16        22.5909  -29.5647  -46.1123 S.3       10 UNK        -0.2568 
     17 C17        21.9496  -28.8435  -44.5607 C.3       10 UNK        -0.0983 
     18 CA         21.5924  -27.3394  -44.6474 C.3       3 UNK         0.0876 
     19 N          20.3164  -27.1249  -45.3174 N.am      3 UNK        -0.4424 
     20 C          20.0879  -26.3546  -46.3853 C.2       2 UNK         0.4918 
     21 O          20.9742  -25.8688  -47.0877 O.2       2 UNK        -0.4875 
     22 CA         18.6082  -26.0482  -46.7083 C.3       2 UNK         0.0481 
     23 CB         18.1280  -26.8413  -47.9354 C.3       2 UNK        -0.1831 
     24 N          17.7065  -26.2916  -45.5708 N.am      2 UNK        -0.4498 
     25 C          17.6638  -25.5200  -44.4730 C.2       1 UNK         0.5027 
     26 O          18.2864  -24.4590  -44.3795 O.2       1 UNK        -0.4969 
     27 C          21.4069  -26.7522  -43.2349 C.2       3 UNK         0.5005 
     28 O          20.3028  -26.8198  -42.6843 O.2       3 UNK        -0.5279 
     29 N          22.4731  -26.1883  -42.6638 N.am      4 UNK        -0.4463 
     30 CA         22.4841  -25.5770  -41.3378 C.3       4 UNK         0.0283 
     31 CB         21.9257  -24.1437  -41.4073 C.3       4 UNK        -0.1875 
     32 C          23.9204  -25.5932  -40.8099 C.2       4 UNK         0.4949 
     33 O          24.8587  -25.6845  -41.6050 O.2       4 UNK        -0.5039 
     34 N          24.0622  -25.5309  -39.4789 N.am      5 UNK        -0.4663 
     35 CA         25.2973  -25.6143  -38.6779 C.3       5 UNK         0.0242 
     36 CB         26.3061  -24.5114  -39.0563 C.3       5 UNK        -0.1982 
     37 C          25.9627  -27.0049  -38.6778 C.2       5 UNK         0.5017 
     38 O          26.4350  -27.4418  -37.6277 O.2       5 UNK        -0.5012 
     39 N          25.9603  -27.6861  -39.8261 N.am      6 UNK        -0.4439 
     40 CA         26.3822  -29.0672  -40.0185 C.3       6 UNK         0.0297 
     41 CB         27.8756  -29.1108  -40.3849 C.3       6 UNK        -0.2006 
     42 C          25.5205  -29.6789  -41.1292 C.2       6 UNK         0.4892 
     43 O          25.0482  -28.9487  -42.0036 O.2       6 UNK        -0.5089 
     44 N          25.3428  -31.0066  -41.0703 N.am      7 UNK        -0.4243 
     45 CA         24.6029  -31.8449  -42.0270 C.3       7 UNK         0.0196 
     46 CB         25.3168  -31.8639  -43.3965 C.3       7 UNK        -0.2007 
     47 C          23.1029  -31.5016  -42.1560 C.2       7 UNK         0.5020 
     48 O          22.5032  -31.7988  -43.1860 O.2       7 UNK        -0.5147 
     49 N          22.5121  -30.9061  -41.1089 N.am      8 UNK        -0.4734 
     50 CA         21.1076  -30.4742  -41.0706 C.3       8 UNK         0.0238 
     51 CB         20.9293  -29.4548  -39.9330 C.3       8 UNK        -0.1912 
     52 C          20.0878  -31.6247  -40.9509 C.2       8 UNK         0.5038 
     53 O          18.8912  -31.3777  -41.0980 O.2       8 UNK        -0.5046 
     54 N          20.5678  -32.8452  -40.6727 N.am      9 UNK        -0.4200 
     55 CA         19.7889  -34.0945  -40.5964 C.3       9 UNK         0.0839 
     56 C          18.7772  -34.1652  -39.4113 C.2       9 UNK         0.5513 
     57 N          18.9078  -33.3372  -38.3816 N.am      9 UNK        -0.7519 
     58 O          17.8810  -35.0056  -39.4027 O.2       9 UNK        -0.4960 
     59 C59        19.1499  -34.4917  -41.9600 C.3       10 UNK        -0.0876 
     60 S60        20.3881  -34.6769  -43.2902 S.3       10 UNK        -0.2414 
     61 C61        19.3941  -34.3525  -44.7805 C.3       10 UNK         0.0169 
     62 H62        19.2964  -25.8223  -40.1320 H         1 UNK         0.0903 
     63 H63        18.5137  -24.3902  -39.4578 H         1 UNK         0.0903 
     64 H64        18.0201  -26.0019  -38.9278 H         1 UNK         0.0903 
     65 H65        18.6444  -26.1551  -42.2332 H         1 UNK         0.3096 
     66 H66        16.0153  -25.2701  -43.1944 H         1 UNK         0.1121 
     67 H67        15.4490  -27.5281  -42.5824 H         1 UNK         0.0849 
     68 H68        15.5947  -27.4964  -44.3066 H         1 UNK         0.0849 
     69 H69        16.0352  -30.6262  -44.0449 H         1 UNK         0.0865 
     70 H70        16.3417  -29.4744  -45.3267 H         1 UNK         0.0865 
     71 H71        17.3840  -32.6446  -44.0479 H         1 UNK         0.1346 
     72 H72        21.1110  -32.7555  -46.1846 H         1 UNK         0.1412 
     73 H73        18.8202  -29.1449  -46.0320 H         1 UNK         0.1426 
     74 H74        21.4513  -30.7826  -47.8487 H         1 UNK         0.0716 
     75 H75        20.6659  -29.2653  -47.5233 H         1 UNK         0.0716 
     76 H76        22.7416  -28.9920  -43.8238 H         1 UNK         0.0695 
     77 H77        21.1055  -29.4286  -44.1978 H         1 UNK         0.0695 
     78 H78        22.3930  -26.7952  -45.1532 H         1 UNK         0.0983 
     79 H79        19.5234  -27.3920  -44.7500 H         1 UNK         0.3095 
     80 H80        18.5520  -24.9878  -46.9634 H         1 UNK         0.0454 
     81 H81        18.1220  -27.9164  -47.7632 H         1 UNK         0.0851 
     82 H82        17.1201  -26.5450  -48.2262 H         1 UNK         0.0851 
     83 H83        18.7752  -26.6563  -48.7939 H         1 UNK         0.0851 
     84 H84        17.1617  -27.1410  -45.5880 H         1 UNK         0.2976 
     85 H85        23.3819  -26.2180  -43.1125 H         1 UNK         0.3116 
     86 H86        21.8676  -26.1750  -40.6634 H         1 UNK         0.0646 
     87 H87        20.8949  -24.1341  -41.7627 H         1 UNK         0.0847 
     88 H88        22.5152  -23.5157  -42.0763 H         1 UNK         0.0847 
     89 H89        21.9315  -23.6704  -40.4248 H         1 UNK         0.0847 
     90 H90        23.2152  -25.4745  -38.9290 H         1 UNK         0.3040 
     91 H91        24.9882  -25.4266  -37.6480 H         1 UNK         0.1015 
     92 H92        27.1520  -24.5090  -38.3675 H         1 UNK         0.0786 
     93 H93        25.8490  -23.5230  -39.0114 H         1 UNK         0.0786 
     94 H94        26.7106  -24.6497  -40.0592 H         1 UNK         0.0786 
     95 H95        25.5473  -27.2474  -40.6475 H         1 UNK         0.3172 
     96 H96        26.2143  -29.6305  -39.0980 H         1 UNK         0.0595 
     97 H97        28.0800  -28.5571  -41.3023 H         1 UNK         0.0839 
     98 H98        28.2126  -30.1365  -40.5399 H         1 UNK         0.0839 
     99 H99        28.4909  -28.6841  -39.5926 H         1 UNK         0.0839 
    100 H100       25.7705  -31.5059  -40.3018 H         1 UNK         0.2998 
    101 H101       24.6385  -32.8598  -41.6282 H         1 UNK         0.0822 
    102 H102       26.3720  -32.1164  -43.2930 H         1 UNK         0.0787 
    103 H103       24.8715  -32.6054  -44.0611 H         1 UNK         0.0787 
    104 H104       25.2485  -30.8986  -43.8998 H         1 UNK         0.0787 
    105 H105       23.0748  -30.7032  -40.2957 H         1 UNK         0.3055 
    106 H106       20.8814  -29.9656  -42.0087 H         1 UNK         0.1106 
    107 H107       21.5943  -28.6008  -40.0606 H         1 UNK         0.0828 
    108 H108       19.9101  -29.0654  -39.9167 H         1 UNK         0.0828 
    109 H109       21.1276  -29.8971  -38.9562 H         1 UNK         0.0828 
    110 H110       21.5649  -32.9418  -40.5572 H         1 UNK         0.2931 
    111 H111       20.5235  -34.8650  -40.3597 H         1 UNK         0.0412 
    112 H112       18.2575  -33.3962  -37.6136 H         1 UNK         0.3472 
    113 H113       19.6414  -32.6471  -38.3720 H         1 UNK         0.3472 
    114 H114       18.4002  -33.7564  -42.2510 H         1 UNK         0.0970 
    115 H115       18.6225  -35.4435  -41.8763 H         1 UNK         0.0970 
    116 H116       18.4113  -34.8142  -44.6732 H         1 UNK         0.0612 
    117 H117       19.8694  -34.8530  -45.6253 H         1 UNK         0.0612 
@<TRIPOS>BOND
     1    1    2 1    
     2    1   62 1    
     3    1   63 1    
     4    1   64 1    
     5    2    3 2    
     6    2    4 am   BACKBONE|DICT|INTERRES
     7    4    5 1    
     8    4   65 1    
     9    5    6 1    
    10    5   25 1    
    11    5   66 1    
    12    6    7 1    
    13    6   67 1    
    14    6   68 1    
    15    7    8 1    
    16    8    9 1    
    17    8   69 1    
    18    8   70 1    
    19    9   10 ar   
    20    9   14 ar   
    21   10   11 ar   
    22   10   71 1    
    23   11   12 ar   
    24   11   61 1    
    25   12   13 ar   
    26   12   72 1    
    27   13   14 ar   
    28   13   15 1    
    29   14   73 1    
    30   15   16 1    
    31   15   74 1    
    32   15   75 1    
    33   16   17 1    
    34   17   18 1    
    35   17   76 1    
    36   17   77 1    
    37   18   19 1    
    38   18   27 1    
    39   18   78 1    
    40   19   20 am   BACKBONE|DICT|INTERRES
    41   19   79 1    
    42   20   21 2    
    43   20   22 1    
    44   22   23 1    
    45   22   24 1    
    46   22   80 1    
    47   23   81 1    
    48   23   82 1    
    49   23   83 1    
    50   24   25 am   BACKBONE|DICT|INTERRES
    51   24   84 1    
    52   25   26 2    
    53   27   28 2    
    54   27   29 am   BACKBONE|DICT|INTERRES
    55   29   30 1    
    56   29   85 1    
    57   30   31 1    
    58   30   32 1    
    59   30   86 1    
    60   31   87 1    
    61   31   88 1    
    62   31   89 1    
    63   32   33 2    
    64   32   34 am   BACKBONE|DICT|INTERRES
    65   34   35 1    
    66   34   90 1    
    67   35   36 1    
    68   35   37 1    
    69   35   91 1    
    70   36   92 1    
    71   36   93 1    
    72   36   94 1    
    73   37   38 2    
    74   37   39 am   BACKBONE|DICT|INTERRES
    75   39   40 1    
    76   39   95 1    
    77   40   41 1    
    78   40   42 1    
    79   40   96 1    
    80   41   97 1    
    81   41   98 1    
    82   41   99 1    
    83   42   43 2    
    84   42   44 am   BACKBONE|DICT|INTERRES
    85   44   45 1    
    86   44  100 1    
    87   45   46 1    
    88   45   47 1    
    89   45  101 1    
    90   46  102 1    
    91   46  103 1    
    92   46  104 1    
    93   47   48 2    
    94   47   49 am   BACKBONE|DICT|INTERRES
    95   49   50 1    
    96   49  105 1    
    97   50   51 1    
    98   50   52 1    
    99   50  106 1    
   100   51  107 1    
   101   51  108 1    
   102   51  109 1    
   103   52   53 2    
   104   52   54 am   BACKBONE|DICT|INTERRES
   105   54   55 1    
   106   54  110 1    
   107   55   56 1    
   108   55   59 1    
   109   55  111 1    
   110   56   57 am   BACKBONE|DICT|INTERRES
   111   56   58 2    
   112   57  112 1    
   113   57  113 1    
   114   59   60 1    
   115   59  114 1    
   116   59  115 1    
   117   60   61 1    
   118   61  116 1    
   119   61  117 1    
@<TRIPOS>SUBSTRUCTURE
     1 UNK         1 GROUP             0       ****    0 ROOT    
