@<TRIPOS>MOLECULE
3R8
117   119    1
SMALL
USER_CHARGES


@<TRIPOS>ATOM
      1 CA         19.7480  -22.2963  -43.5488 C.3       0 UNK        -0.2013 
      2 C          19.4123  -22.5737  -45.0125 C.2       0 UNK         0.4866 
      3 O          19.0037  -21.6550  -45.7198 O.2       0 UNK        -0.5176 
      4 N          19.5705  -23.8045  -45.5218 N.am      1 UNK        -0.4884 
      5 CA         19.9829  -25.0246  -44.8138 C.3       1 UNK         0.0853 
      6 C6         20.3571  -26.1656  -45.7975 C.3       10 UNK        -0.0849 
      7 S7         19.0713  -26.5204  -47.0479 S.3       10 UNK        -0.2776 
      8 C8         19.7504  -28.0043  -47.8545 C.3       10 UNK         0.0316 
      9 C9         19.5451  -29.2536  -47.0103 C.ar      10 UNK        -0.0863 
     10 C10        20.6264  -29.8719  -46.3762 C.ar      10 UNK        -0.1009 
     11 C11        20.4369  -31.0330  -45.6198 C.ar      10 UNK        -0.0712 
     12 C12        19.1525  -31.5729  -45.4943 C.ar      10 UNK        -0.0894 
     13 C13        18.0600  -30.9499  -46.1072 C.ar      10 UNK        -0.0745 
     14 C14        18.2668  -29.8015  -46.8772 C.ar      10 UNK        -0.0972 
     15 C15        16.6509  -31.4959  -45.9220 C.3       10 UNK         0.0209 
     16 S16        15.5834  -30.3217  -45.0215 S.3       10 UNK        -0.2568 
     17 C17        16.2739  -30.3873  -43.3321 C.3       10 UNK        -0.0983 
     18 CA         17.4523  -29.4002  -43.0993 C.3       3 UNK         0.0876 
     19 N          17.1615  -28.0151  -43.4816 N.am      3 UNK        -0.4424 
     20 C          16.3752  -27.1408  -42.8396 C.2       2 UNK         0.4918 
     21 O          15.6373  -27.4438  -41.9012 O.2       2 UNK        -0.4875 
     22 CA         16.4600  -25.6662  -43.2992 C.3       2 UNK         0.0481 
     23 CB         16.3539  -24.6941  -42.1057 C.3       2 UNK        -0.1831 
     24 N          17.6461  -25.3328  -44.1084 N.am      2 UNK        -0.4498 
     25 C          18.9398  -25.5001  -43.7834 C.2       1 UNK         0.5027 
     26 O          19.3244  -26.0149  -42.7336 O.2       1 UNK        -0.4969 
     27 C          18.0667  -29.5136  -41.6833 C.2       3 UNK         0.5005 
     28 O          17.8277  -30.5039  -40.9901 O.2       3 UNK        -0.5279 
     29 N          18.8630  -28.5122  -41.2795 N.am      4 UNK        -0.4463 
     30 CA         19.5180  -28.4307  -39.9731 C.3       4 UNK         0.0283 
     31 CB         18.5421  -27.8341  -38.9388 C.3       4 UNK        -0.1875 
     32 C          20.8356  -27.6437  -40.0784 C.2       4 UNK         0.4949 
     33 O          21.1606  -26.8655  -39.1799 O.2       4 UNK        -0.5039 
     34 N          21.5638  -27.8371  -41.1865 N.am      5 UNK        -0.4663 
     35 CA         22.8357  -27.1686  -41.4669 C.3       5 UNK         0.0242 
     36 CB         23.1011  -27.2236  -42.9816 C.3       5 UNK        -0.1982 
     37 C          24.0079  -27.7873  -40.6851 C.2       5 UNK         0.5017 
     38 O          23.8872  -28.8873  -40.1370 O.2       5 UNK        -0.5012 
     39 N          25.1515  -27.0861  -40.7125 N.am      6 UNK        -0.4439 
     40 CA         26.4240  -27.4524  -40.0714 C.3       6 UNK         0.0297 
     41 CB         27.4261  -26.3012  -40.2602 C.3       6 UNK        -0.2006 
     42 C          27.0435  -28.7863  -40.5393 C.2       6 UNK         0.4892 
     43 O          27.9501  -29.2914  -39.8770 O.2       6 UNK        -0.5089 
     44 N          26.5258  -29.3517  -41.6386 N.am      7 UNK        -0.4243 
     45 CA         26.8012  -30.7087  -42.1174 C.3       7 UNK         0.0196 
     46 CB         26.2614  -30.8371  -43.5525 C.3       7 UNK        -0.2007 
     47 C          26.2174  -31.8219  -41.2181 C.2       7 UNK         0.5020 
     48 O          26.5038  -32.9919  -41.4723 O.2       7 UNK        -0.5147 
     49 N          25.4166  -31.4509  -40.2047 N.am      8 UNK        -0.4734 
     50 CA         24.7066  -32.3132  -39.2519 C.3       8 UNK         0.0238 
     51 CB         25.6759  -33.2054  -38.4453 C.3       8 UNK        -0.1912 
     52 C          23.5752  -33.0925  -39.9412 C.2       8 UNK         0.5038 
     53 O          23.4848  -34.3152  -39.8113 O.2       8 UNK        -0.5046 
     54 N          22.7477  -32.3458  -40.6815 N.am      9 UNK        -0.4200 
     55 CA         21.5658  -32.8219  -41.4121 C.3       9 UNK         0.0839 
     56 C          20.5085  -33.4938  -40.4927 C.2       9 UNK         0.5513 
     57 N          19.8199  -34.5142  -40.9855 N.am      9 UNK        -0.7519 
     58 O          20.2822  -33.0737  -39.3597 O.2       9 UNK        -0.4960 
     59 C59        20.9171  -31.6689  -42.2169 C.3       10 UNK        -0.0876 
     60 S60        22.0735  -30.8879  -43.3904 S.3       10 UNK        -0.2414 
     61 C61        21.6288  -31.7039  -44.9536 C.3       10 UNK         0.0169 
     62 H62        18.9747  -22.6946  -42.8928 H         1 UNK         0.0903 
     63 H63        20.7081  -22.7249  -43.2653 H         1 UNK         0.0903 
     64 H64        19.8088  -21.2225  -43.3725 H         1 UNK         0.0903 
     65 H65        19.3472  -23.9485  -46.4974 H         1 UNK         0.3096 
     66 H66        20.8866  -24.7898  -44.2482 H         1 UNK         0.1121 
     67 H67        20.5910  -27.0846  -45.2562 H         1 UNK         0.0849 
     68 H68        21.2722  -25.8971  -46.3280 H         1 UNK         0.0849 
     69 H69        19.2532  -28.1397  -48.8162 H         1 UNK         0.0865 
     70 H70        20.8070  -27.8499  -48.0796 H         1 UNK         0.0865 
     71 H71        21.6196  -29.4545  -46.4730 H         1 UNK         0.1346 
     72 H72        19.0006  -32.4683  -44.9076 H         1 UNK         0.1412 
     73 H73        17.4248  -29.3194  -47.3558 H         1 UNK         0.1426 
     74 H74        16.6622  -32.4531  -45.3986 H         1 UNK         0.0716 
     75 H75        16.2140  -31.6874  -46.9030 H         1 UNK         0.0716 
     76 H76        16.5855  -31.4137  -43.1298 H         1 UNK         0.0695 
     77 H77        15.4639  -30.1742  -42.6325 H         1 UNK         0.0695 
     78 H78        18.2677  -29.6995  -43.7538 H         1 UNK         0.0983 
     79 H79        17.6935  -27.6646  -44.2645 H         1 UNK         0.3095 
     80 H80        15.5956  -25.5002  -43.9434 H         1 UNK         0.0454 
     81 H81        17.1621  -24.8459  -41.3892 H         1 UNK         0.0851 
     82 H82        15.4143  -24.8290  -41.5686 H         1 UNK         0.0851 
     83 H83        16.3876  -23.6557  -42.4347 H         1 UNK         0.0851 
     84 H84        17.4532  -24.9277  -45.0149 H         1 UNK         0.2976 
     85 H85        19.0067  -27.7064  -41.8867 H         1 UNK         0.3116 
     86 H86        19.7924  -29.4353  -39.6446 H         1 UNK         0.0646 
     87 H87        18.2485  -26.8187  -39.2078 H         1 UNK         0.0847 
     88 H88        18.9935  -27.7952  -37.9467 H         1 UNK         0.0847 
     89 H89        17.6353  -28.4331  -38.8553 H         1 UNK         0.0847 
     90 H90        21.2548  -28.5216  -41.8603 H         1 UNK         0.3040 
     91 H91        22.7441  -26.1215  -41.1683 H         1 UNK         0.1015 
     92 H92        23.2829  -28.2408  -43.3277 H         1 UNK         0.0786 
     93 H93        23.9732  -26.6287  -43.2551 H         1 UNK         0.0786 
     94 H94        22.2575  -26.8253  -43.5425 H         1 UNK         0.0786 
     95 H95        25.1515  -26.2050  -41.2070 H         1 UNK         0.3172 
     96 H96        26.2255  -27.5579  -39.0029 H         1 UNK         0.0595 
     97 H97        27.6470  -26.1269  -41.3140 H         1 UNK         0.0839 
     98 H98        28.3722  -26.5193  -39.7622 H         1 UNK         0.0839 
     99 H99        27.0497  -25.3705  -39.8354 H         1 UNK         0.0839 
    100 H100       25.7889  -28.8523  -42.1135 H         1 UNK         0.2998 
    101 H101       27.8841  -30.8478  -42.1406 H         1 UNK         0.0822 
    102 H102       26.7126  -30.0985  -44.2153 H         1 UNK         0.0787 
    103 H103       26.4838  -31.8206  -43.9690 H         1 UNK         0.0787 
    104 H104       25.1792  -30.7064  -43.5890 H         1 UNK         0.0787 
    105 H105       25.1921  -30.4634  -40.1298 H         1 UNK         0.3055 
    106 H106       24.2200  -31.6432  -38.5406 H         1 UNK         0.1106 
    107 H107       25.1454  -33.7322  -37.6512 H         1 UNK         0.0828 
    108 H108       26.1535  -33.9623  -39.0677 H         1 UNK         0.0828 
    109 H109       26.4604  -32.6136  -37.9739 H         1 UNK         0.0828 
    110 H110       22.9240  -31.3531  -40.7360 H         1 UNK         0.2931 
    111 H111       21.9197  -33.5736  -42.1206 H         1 UNK         0.0412 
    112 H112       19.1182  -34.9537  -40.4101 H         1 UNK         0.3472 
    113 H113       19.9965  -34.8655  -41.9139 H         1 UNK         0.3472 
    114 H114       20.0312  -32.0151  -42.7507 H         1 UNK         0.0970 
    115 H115       20.5727  -30.8972  -41.5295 H         1 UNK         0.0970 
    116 H116       21.4346  -32.7630  -44.7772 H         1 UNK         0.0612 
    117 H117       22.4886  -31.6611  -45.6238 H         1 UNK         0.0612 
@<TRIPOS>BOND
     1    1    2 1    
     2    1   62 1    
     3    1   63 1    
     4    1   64 1    
     5    2    3 2    
     6    2    4 am   BACKBONE|DICT|INTERRES
     7    4    5 1    
     8    4   65 1    
     9    5    6 1    
    10    5   25 1    
    11    5   66 1    
    12    6    7 1    
    13    6   67 1    
    14    6   68 1    
    15    7    8 1    
    16    8    9 1    
    17    8   69 1    
    18    8   70 1    
    19    9   10 ar   
    20    9   14 ar   
    21   10   11 ar   
    22   10   71 1    
    23   11   12 ar   
    24   11   61 1    
    25   12   13 ar   
    26   12   72 1    
    27   13   14 ar   
    28   13   15 1    
    29   14   73 1    
    30   15   16 1    
    31   15   74 1    
    32   15   75 1    
    33   16   17 1    
    34   17   18 1    
    35   17   76 1    
    36   17   77 1    
    37   18   19 1    
    38   18   27 1    
    39   18   78 1    
    40   19   20 am   BACKBONE|DICT|INTERRES
    41   19   79 1    
    42   20   21 2    
    43   20   22 1    
    44   22   23 1    
    45   22   24 1    
    46   22   80 1    
    47   23   81 1    
    48   23   82 1    
    49   23   83 1    
    50   24   25 am   BACKBONE|DICT|INTERRES
    51   24   84 1    
    52   25   26 2    
    53   27   28 2    
    54   27   29 am   BACKBONE|DICT|INTERRES
    55   29   30 1    
    56   29   85 1    
    57   30   31 1    
    58   30   32 1    
    59   30   86 1    
    60   31   87 1    
    61   31   88 1    
    62   31   89 1    
    63   32   33 2    
    64   32   34 am   BACKBONE|DICT|INTERRES
    65   34   35 1    
    66   34   90 1    
    67   35   36 1    
    68   35   37 1    
    69   35   91 1    
    70   36   92 1    
    71   36   93 1    
    72   36   94 1    
    73   37   38 2    
    74   37   39 am   BACKBONE|DICT|INTERRES
    75   39   40 1    
    76   39   95 1    
    77   40   41 1    
    78   40   42 1    
    79   40   96 1    
    80   41   97 1    
    81   41   98 1    
    82   41   99 1    
    83   42   43 2    
    84   42   44 am   BACKBONE|DICT|INTERRES
    85   44   45 1    
    86   44  100 1    
    87   45   46 1    
    88   45   47 1    
    89   45  101 1    
    90   46  102 1    
    91   46  103 1    
    92   46  104 1    
    93   47   48 2    
    94   47   49 am   BACKBONE|DICT|INTERRES
    95   49   50 1    
    96   49  105 1    
    97   50   51 1    
    98   50   52 1    
    99   50  106 1    
   100   51  107 1    
   101   51  108 1    
   102   51  109 1    
   103   52   53 2    
   104   52   54 am   BACKBONE|DICT|INTERRES
   105   54   55 1    
   106   54  110 1    
   107   55   56 1    
   108   55   59 1    
   109   55  111 1    
   110   56   57 am   BACKBONE|DICT|INTERRES
   111   56   58 2    
   112   57  112 1    
   113   57  113 1    
   114   59   60 1    
   115   59  114 1    
   116   59  115 1    
   117   60   61 1    
   118   61  116 1    
   119   61  117 1    
@<TRIPOS>SUBSTRUCTURE
     1 UNK         1 GROUP             0       ****    0 ROOT    
