@<TRIPOS>MOLECULE
3R8
117   119    1
SMALL
USER_CHARGES


@<TRIPOS>ATOM
      1 CA         16.4858  -23.6112  -41.8286 C.3       0 UNK        -0.2013 
      2 C          17.1473  -24.6781  -42.6884 C.2       0 UNK         0.4866 
      3 O          17.0208  -25.8663  -42.3901 O.2       0 UNK        -0.5176 
      4 N          17.8452  -24.2582  -43.7546 N.am      1 UNK        -0.4884 
      5 CA         18.5604  -25.1083  -44.7177 C.3       1 UNK         0.0853 
      6 C6         17.5896  -26.0541  -45.4866 C.3       10 UNK        -0.0849 
      7 S7         18.2206  -26.6025  -47.1122 S.3       10 UNK        -0.2776 
      8 C8         17.1825  -28.0622  -47.4451 C.3       10 UNK         0.0316 
      9 C9         17.4826  -29.2321  -46.5146 C.ar      10 UNK        -0.0863 
     10 C10        18.5669  -30.0813  -46.7670 C.ar      10 UNK        -0.1009 
     11 C11        18.8067  -31.1938  -45.9503 C.ar      10 UNK        -0.0712 
     12 C12        17.9352  -31.4588  -44.8929 C.ar      10 UNK        -0.0894 
     13 C13        16.8792  -30.5955  -44.5995 C.ar      10 UNK        -0.0745 
     14 C14        16.6490  -29.4896  -45.4212 C.ar      10 UNK        -0.0972 
     15 C15        15.9886  -30.8693  -43.3964 C.3       10 UNK         0.0209 
     16 S16        16.9469  -31.0178  -41.8511 S.3       10 UNK        -0.2568 
     17 C17        17.6006  -29.3295  -41.6464 C.3       10 UNK        -0.0983 
     18 CA         19.1586  -29.2882  -41.5887 C.3       3 UNK         0.0876 
     19 N          19.7349  -28.7487  -42.8249 N.am      3 UNK        -0.4424 
     20 C          21.0388  -28.5621  -43.0891 C.2       2 UNK         0.4918 
     21 O          21.9576  -28.9567  -42.3719 O.2       2 UNK        -0.4875 
     22 CA         21.3810  -27.7241  -44.3359 C.3       2 UNK         0.0481 
     23 CB         21.8216  -28.6079  -45.5089 C.3       2 UNK        -0.1831 
     24 N          20.2911  -26.8501  -44.7742 N.am      2 UNK        -0.4498 
     25 C          19.7591  -25.8443  -44.0674 C.2       1 UNK         0.5027 
     26 O          20.1725  -25.5124  -42.9526 O.2       1 UNK        -0.4969 
     27 C          19.6202  -28.5109  -40.3361 C.2       3 UNK         0.5005 
     28 O          19.8853  -29.1332  -39.3065 O.2       3 UNK        -0.5279 
     29 N          19.6929  -27.1740  -40.4347 N.am      4 UNK        -0.4463 
     30 CA         20.1289  -26.3012  -39.3453 C.3       4 UNK         0.0283 
     31 CB         19.6190  -24.8696  -39.5762 C.3       4 UNK        -0.1875 
     32 C          21.6535  -26.3316  -39.1759 C.2       4 UNK         0.4949 
     33 O          22.1329  -26.5988  -38.0737 O.2       4 UNK        -0.5039 
     34 N          22.3834  -26.0700  -40.2664 N.am      5 UNK        -0.4663 
     35 CA         23.8442  -26.0463  -40.3217 C.3       5 UNK         0.0242 
     36 CB         24.3873  -24.8293  -39.5405 C.3       5 UNK        -0.1982 
     37 C          24.2869  -25.9685  -41.7921 C.2       5 UNK         0.5017 
     38 O          23.5259  -25.4514  -42.6085 O.2       5 UNK        -0.5012 
     39 N          25.4998  -26.4088  -42.1555 N.am      6 UNK        -0.4439 
     40 CA         26.5183  -27.0469  -41.3120 C.3       6 UNK         0.0297 
     41 CB         27.9005  -26.5264  -41.7407 C.3       6 UNK        -0.2006 
     42 C          26.4901  -28.5835  -41.3952 C.2       6 UNK         0.4892 
     43 O          27.0981  -29.2326  -40.5439 O.2       6 UNK        -0.5089 
     44 N          25.8222  -29.1405  -42.4164 N.am      7 UNK        -0.4243 
     45 CA         25.8061  -30.5786  -42.7020 C.3       7 UNK         0.0196 
     46 CB         25.3127  -30.8088  -44.1392 C.3       7 UNK        -0.2007 
     47 C          24.9547  -31.3982  -41.7205 C.2       7 UNK         0.5020 
     48 O          25.2493  -32.5752  -41.5157 O.2       7 UNK        -0.5147 
     49 N          23.8870  -30.7912  -41.1835 N.am      8 UNK        -0.4734 
     50 CA         22.8535  -31.3495  -40.2962 C.3       8 UNK         0.0238 
     51 CB         23.4581  -31.9140  -38.9957 C.3       8 UNK        -0.1912 
     52 C          21.9106  -32.3675  -40.9677 C.2       8 UNK         0.5038 
     53 O          20.7605  -32.4738  -40.5424 O.2       8 UNK        -0.5046 
     54 N          22.3903  -33.0758  -41.9992 N.am      9 UNK        -0.4200 
     55 CA         21.6439  -34.0233  -42.8453 C.3       9 UNK         0.0839 
     56 C          21.1358  -35.2977  -42.1022 C.2       9 UNK         0.5513 
     57 N          21.6944  -35.6566  -40.9523 N.am      9 UNK        -0.7519 
     58 O          20.2487  -35.9955  -42.5876 O.2       9 UNK        -0.4960 
     59 C59        20.5355  -33.3198  -43.6808 C.3       10 UNK        -0.0876 
     60 S60        21.2148  -32.0927  -44.8546 S.3       10 UNK        -0.2414 
     61 C61        19.9909  -32.1187  -46.2126 C.3       10 UNK         0.0169 
     62 H62        15.4017  -23.6955  -41.8990 H         1 UNK         0.0903 
     63 H63        16.7677  -23.7368  -40.7843 H         1 UNK         0.0903 
     64 H64        16.7696  -22.6049  -42.1361 H         1 UNK         0.0903 
     65 H65        17.9357  -23.2643  -43.9158 H         1 UNK         0.3096 
     66 H66        18.9988  -24.4164  -45.4390 H         1 UNK         0.1121 
     67 H67        16.6467  -25.5389  -45.6777 H         1 UNK         0.0849 
     68 H68        17.3322  -26.9133  -44.8676 H         1 UNK         0.0849 
     69 H69        16.1308  -27.7784  -47.3794 H         1 UNK         0.0865 
     70 H70        17.3422  -28.3754  -48.4780 H         1 UNK         0.0865 
     71 H71        19.2184  -29.8783  -47.6062 H         1 UNK         0.1346 
     72 H72        18.0851  -32.3293  -44.2740 H         1 UNK         0.1412 
     73 H73        15.8141  -28.8334  -45.2151 H         1 UNK         0.1426 
     74 H74        15.4440  -31.7992  -43.5648 H         1 UNK         0.0716 
     75 H75        15.2374  -30.0871  -43.2758 H         1 UNK         0.0716 
     76 H76        17.1390  -28.9434  -40.7345 H         1 UNK         0.0695 
     77 H77        17.2184  -28.6830  -42.4382 H         1 UNK         0.0695 
     78 H78        19.5498  -30.3013  -41.4827 H         1 UNK         0.0983 
     79 H79        19.0715  -28.4107  -43.5049 H         1 UNK         0.3095 
     80 H80        22.2241  -27.0863  -44.0736 H         1 UNK         0.0454 
     81 H81        22.1658  -28.0091  -46.3519 H         1 UNK         0.0851 
     82 H82        22.6440  -29.2601  -45.2202 H         1 UNK         0.0851 
     83 H83        21.0117  -29.2442  -45.8582 H         1 UNK         0.0851 
     84 H84        19.8812  -27.0512  -45.6790 H         1 UNK         0.2976 
     85 H85        19.4990  -26.7306  -41.3264 H         1 UNK         0.3116 
     86 H86        19.6831  -26.6603  -38.4149 H         1 UNK         0.0646 
     87 H87        19.9869  -24.4461  -40.5110 H         1 UNK         0.0847 
     88 H88        19.9400  -24.2077  -38.7708 H         1 UNK         0.0847 
     89 H89        18.5304  -24.8432  -39.6009 H         1 UNK         0.0847 
     90 H90        21.9244  -25.8749  -41.1507 H         1 UNK         0.3040 
     91 H91        24.2035  -26.9769  -39.8794 H         1 UNK         0.1015 
     92 H92        25.4675  -24.7294  -39.6495 H         1 UNK         0.0786 
     93 H93        24.1835  -24.9104  -38.4730 H         1 UNK         0.0786 
     94 H94        23.9422  -23.8987  -39.8949 H         1 UNK         0.0786 
     95 H95        25.7596  -26.2840  -43.1236 H         1 UNK         0.3172 
     96 H96        26.3890  -26.7762  -40.2645 H         1 UNK         0.0595 
     97 H97        28.1278  -26.7799  -42.7770 H         1 UNK         0.0839 
     98 H98        28.6899  -26.9548  -41.1212 H         1 UNK         0.0839 
     99 H99        27.9655  -25.4429  -41.6382 H         1 UNK         0.0839 
    100 H100       25.3321  -28.5389  -43.0616 H         1 UNK         0.2998 
    101 H101       26.8320  -30.9477  -42.6329 H         1 UNK         0.0822 
    102 H102       25.9076  -30.2513  -44.8629 H         1 UNK         0.0787 
    103 H103       25.3807  -31.8637  -44.4091 H         1 UNK         0.0787 
    104 H104       24.2702  -30.5148  -44.2556 H         1 UNK         0.0787 
    105 H105       23.6659  -29.8620  -41.5254 H         1 UNK         0.3055 
    106 H106       22.2249  -30.5010  -40.0199 H         1 UNK         0.1106 
    107 H107       24.0805  -31.1729  -38.4942 H         1 UNK         0.0828 
    108 H108       22.6709  -32.2017  -38.2976 H         1 UNK         0.0828 
    109 H109       24.0677  -32.7996  -39.1755 H         1 UNK         0.0828 
    110 H110       23.3743  -32.9688  -42.2126 H         1 UNK         0.2931 
    111 H111       22.3783  -34.4087  -43.5534 H         1 UNK         0.0412 
    112 H112       22.4312  -35.1009  -40.5483 H         1 UNK         0.3472 
    113 H113       21.3701  -36.4874  -40.4824 H         1 UNK         0.3472 
    114 H114       19.8262  -32.8252  -43.0168 H         1 UNK         0.0970 
    115 H115       19.9641  -34.0535  -44.2513 H         1 UNK         0.0970 
    116 H116       20.5015  -31.8201  -47.1292 H         1 UNK         0.0612 
    117 H117       19.6358  -33.1357  -46.3829 H         1 UNK         0.0612 
@<TRIPOS>BOND
     1    1    2 1    
     2    1   62 1    
     3    1   63 1    
     4    1   64 1    
     5    2    3 2    
     6    2    4 am   BACKBONE|DICT|INTERRES
     7    4    5 1    
     8    4   65 1    
     9    5    6 1    
    10    5   25 1    
    11    5   66 1    
    12    6    7 1    
    13    6   67 1    
    14    6   68 1    
    15    7    8 1    
    16    8    9 1    
    17    8   69 1    
    18    8   70 1    
    19    9   10 ar   
    20    9   14 ar   
    21   10   11 ar   
    22   10   71 1    
    23   11   12 ar   
    24   11   61 1    
    25   12   13 ar   
    26   12   72 1    
    27   13   14 ar   
    28   13   15 1    
    29   14   73 1    
    30   15   16 1    
    31   15   74 1    
    32   15   75 1    
    33   16   17 1    
    34   17   18 1    
    35   17   76 1    
    36   17   77 1    
    37   18   19 1    
    38   18   27 1    
    39   18   78 1    
    40   19   20 am   BACKBONE|DICT|INTERRES
    41   19   79 1    
    42   20   21 2    
    43   20   22 1    
    44   22   23 1    
    45   22   24 1    
    46   22   80 1    
    47   23   81 1    
    48   23   82 1    
    49   23   83 1    
    50   24   25 am   BACKBONE|DICT|INTERRES
    51   24   84 1    
    52   25   26 2    
    53   27   28 2    
    54   27   29 am   BACKBONE|DICT|INTERRES
    55   29   30 1    
    56   29   85 1    
    57   30   31 1    
    58   30   32 1    
    59   30   86 1    
    60   31   87 1    
    61   31   88 1    
    62   31   89 1    
    63   32   33 2    
    64   32   34 am   BACKBONE|DICT|INTERRES
    65   34   35 1    
    66   34   90 1    
    67   35   36 1    
    68   35   37 1    
    69   35   91 1    
    70   36   92 1    
    71   36   93 1    
    72   36   94 1    
    73   37   38 2    
    74   37   39 am   BACKBONE|DICT|INTERRES
    75   39   40 1    
    76   39   95 1    
    77   40   41 1    
    78   40   42 1    
    79   40   96 1    
    80   41   97 1    
    81   41   98 1    
    82   41   99 1    
    83   42   43 2    
    84   42   44 am   BACKBONE|DICT|INTERRES
    85   44   45 1    
    86   44  100 1    
    87   45   46 1    
    88   45   47 1    
    89   45  101 1    
    90   46  102 1    
    91   46  103 1    
    92   46  104 1    
    93   47   48 2    
    94   47   49 am   BACKBONE|DICT|INTERRES
    95   49   50 1    
    96   49  105 1    
    97   50   51 1    
    98   50   52 1    
    99   50  106 1    
   100   51  107 1    
   101   51  108 1    
   102   51  109 1    
   103   52   53 2    
   104   52   54 am   BACKBONE|DICT|INTERRES
   105   54   55 1    
   106   54  110 1    
   107   55   56 1    
   108   55   59 1    
   109   55  111 1    
   110   56   57 am   BACKBONE|DICT|INTERRES
   111   56   58 2    
   112   57  112 1    
   113   57  113 1    
   114   59   60 1    
   115   59  114 1    
   116   59  115 1    
   117   60   61 1    
   118   61  116 1    
   119   61  117 1    
@<TRIPOS>SUBSTRUCTURE
     1 UNK         1 GROUP             0       ****    0 ROOT    
