@<TRIPOS>MOLECULE
3R8
117   119    1
SMALL
USER_CHARGES


@<TRIPOS>ATOM
      1 CA         16.5128  -23.7453  -40.3945 C.3       0 UNK        -0.2013 
      2 C          16.5354  -24.1568  -41.8591 C.2       0 UNK         0.4866 
      3 O          15.5576  -23.9359  -42.5738 O.2       0 UNK        -0.5176 
      4 N          17.6439  -24.7505  -42.3102 N.am      1 UNK        -0.4884 
      5 CA         17.8848  -25.1897  -43.6828 C.3       1 UNK         0.0853 
      6 C6         17.1119  -26.4879  -44.0367 C.3       10 UNK        -0.0849 
      7 S7         16.8207  -26.6370  -45.8307 S.3       10 UNK        -0.2776 
      8 C8         15.7876  -28.1336  -45.8964 C.3       10 UNK         0.0316 
      9 C9         16.5720  -29.3769  -45.5051 C.ar      10 UNK        -0.0863 
     10 C10        16.3431  -30.0026  -44.2752 C.ar      10 UNK        -0.1009 
     11 C11        17.0555  -31.1524  -43.9188 C.ar      10 UNK        -0.0712 
     12 C12        17.9950  -31.6781  -44.8096 C.ar      10 UNK        -0.0894 
     13 C13        18.2672  -31.0326  -46.0209 C.ar      10 UNK        -0.0745 
     14 C14        17.5368  -29.8954  -46.3733 C.ar      10 UNK        -0.0972 
     15 C15        19.3912  -31.5313  -46.9198 C.3       10 UNK         0.0209 
     16 S16        20.8712  -30.4607  -46.8298 S.3       10 UNK        -0.2568 
     17 C17        21.2560  -30.4942  -45.0437 C.3       10 UNK        -0.0983 
     18 CA         21.9324  -29.2169  -44.4875 C.3       3 UNK         0.0876 
     19 N          21.3901  -27.9671  -45.0356 N.am      3 UNK        -0.4424 
     20 C          21.9772  -26.7718  -44.8801 C.2       2 UNK         0.4918 
     21 O          23.0101  -26.5961  -44.2347 O.2       2 UNK        -0.4875 
     22 CA         21.2664  -25.5616  -45.5057 C.3       2 UNK         0.0481 
     23 CB         21.3869  -25.5873  -47.0379 C.3       2 UNK        -0.1831 
     24 N          19.8570  -25.4503  -45.1192 N.am      2 UNK        -0.4498 
     25 C          19.4056  -25.3467  -43.8619 C.2       1 UNK         0.5027 
     26 O          20.1347  -25.3854  -42.8656 O.2       1 UNK        -0.4969 
     27 C          21.8613  -29.2375  -42.9472 C.2       3 UNK         0.5005 
     28 O          22.7438  -29.8069  -42.3035 O.2       3 UNK        -0.5279 
     29 N          20.8070  -28.6256  -42.3856 N.am      4 UNK        -0.4463 
     30 CA         20.5846  -28.4905  -40.9456 C.3       4 UNK         0.0283 
     31 CB         19.1754  -27.9416  -40.6720 C.3       4 UNK        -0.1875 
     32 C          21.6614  -27.6208  -40.2810 C.2       4 UNK         0.4949 
     33 O          22.1913  -28.0049  -39.2398 O.2       4 UNK        -0.5039 
     34 N          21.9979  -26.4938  -40.9212 N.am      5 UNK        -0.4663 
     35 CA         23.0875  -25.6094  -40.5110 C.3       5 UNK         0.0242 
     36 CB         22.9837  -24.2843  -41.2833 C.3       5 UNK        -0.1982 
     37 C          24.4734  -26.2474  -40.7064 C.2       5 UNK         0.5017 
     38 O          25.3311  -26.0979  -39.8356 O.2       5 UNK        -0.5012 
     39 N          24.6703  -26.9292  -41.8439 N.am      6 UNK        -0.4439 
     40 CA         25.9467  -27.5277  -42.2344 C.3       6 UNK         0.0297 
     41 CB         25.9350  -27.8536  -43.7365 C.3       6 UNK        -0.2006 
     42 C          26.3336  -28.7735  -41.4221 C.2       6 UNK         0.4892 
     43 O          27.4826  -28.8586  -40.9854 O.2       6 UNK        -0.5089 
     44 N          25.4075  -29.7323  -41.2765 N.am      7 UNK        -0.4243 
     45 CA         25.7182  -31.0798  -40.7847 C.3       7 UNK         0.0196 
     46 CB         26.0796  -31.9728  -41.9877 C.3       7 UNK        -0.2007 
     47 C          24.6040  -31.7125  -39.9353 C.2       7 UNK         0.5020 
     48 O          24.7032  -32.9023  -39.6341 O.2       7 UNK        -0.5147 
     49 N          23.5758  -30.9373  -39.5567 N.am      8 UNK        -0.4734 
     50 CA         22.3685  -31.3825  -38.8426 C.3       8 UNK         0.0238 
     51 CB         22.7060  -31.8794  -37.4192 C.3       8 UNK        -0.1912 
     52 C          21.5378  -32.3924  -39.6623 C.2       8 UNK         0.5038 
     53 O          21.0709  -33.3933  -39.1148 O.2       8 UNK        -0.5046 
     54 N          21.3718  -32.0979  -40.9597 N.am      9 UNK        -0.4200 
     55 CA         20.6733  -32.9207  -41.9610 C.3       9 UNK         0.0839 
     56 C          21.4690  -34.2178  -42.3022 C.2       9 UNK         0.5513 
     57 N          20.8106  -35.3104  -42.6846 N.am      9 UNK        -0.7519 
     58 O          22.7017  -34.2257  -42.2874 O.2       9 UNK        -0.4960 
     59 C59        19.1614  -33.1462  -41.6456 C.3       10 UNK        -0.0876 
     60 S60        18.2180  -31.5948  -41.4273 S.3       10 UNK        -0.2414 
     61 C61        16.8122  -31.8182  -42.5707 C.3       10 UNK         0.0169 
     62 H62        15.6874  -24.2364  -39.8798 H         1 UNK         0.0903 
     63 H63        17.4374  -24.0107  -39.8819 H         1 UNK         0.0903 
     64 H64        16.3749  -22.6677  -40.3095 H         1 UNK         0.0903 
     65 H65        18.4564  -24.8564  -41.7137 H         1 UNK         0.3096 
     66 H66        17.5613  -24.3787  -44.3399 H         1 UNK         0.1121 
     67 H67        16.1329  -26.4898  -43.5553 H         1 UNK         0.0849 
     68 H68        17.6267  -27.3759  -43.6645 H         1 UNK         0.0849 
     69 H69        14.9139  -28.0028  -45.2558 H         1 UNK         0.0865 
     70 H70        15.4047  -28.2550  -46.9107 H         1 UNK         0.0865 
     71 H71        15.6109  -29.5920  -43.5932 H         1 UNK         0.1346 
     72 H72        18.5559  -32.5602  -44.5359 H         1 UNK         0.1412 
     73 H73        17.7410  -29.3953  -47.3105 H         1 UNK         0.1426 
     74 H74        19.6738  -32.5513  -46.6545 H         1 UNK         0.0716 
     75 H75        19.0420  -31.5689  -47.9526 H         1 UNK         0.0716 
     76 H76        20.3370  -30.6725  -44.4925 H         1 UNK         0.0695 
     77 H77        21.8886  -31.3632  -44.8529 H         1 UNK         0.0695 
     78 H78        22.9874  -29.2579  -44.7654 H         1 UNK         0.0983 
     79 H79        20.5511  -28.0436  -45.5924 H         1 UNK         0.3095 
     80 H80        21.7726  -24.6638  -45.1446 H         1 UNK         0.0454 
     81 H81        20.8522  -26.4309  -47.4763 H         1 UNK         0.0851 
     82 H82        20.9915  -24.6736  -47.4817 H         1 UNK         0.0851 
     83 H83        22.4304  -25.6678  -47.3458 H         1 UNK         0.0851 
     84 H84        19.1793  -25.4486  -45.8697 H         1 UNK         0.2976 
     85 H85        20.1401  -28.1756  -42.9940 H         1 UNK         0.3116 
     86 H86        20.6352  -29.4871  -40.5098 H         1 UNK         0.0646 
     87 H87        19.0555  -26.9209  -41.0298 H         1 UNK         0.0847 
     88 H88        18.4082  -28.5546  -41.1447 H         1 UNK         0.0847 
     89 H89        18.9668  -27.9336  -39.6015 H         1 UNK         0.0847 
     90 H90        21.4760  -26.2246  -41.7512 H         1 UNK         0.3040 
     91 H91        22.9689  -25.3956  -39.4463 H         1 UNK         0.1015 
     92 H92        23.0621  -24.4369  -42.3607 H         1 UNK         0.0786 
     93 H93        23.7783  -23.5968  -40.9902 H         1 UNK         0.0786 
     94 H94        22.0340  -23.7861  -41.0873 H         1 UNK         0.0786 
     95 H95        23.9263  -26.9441  -42.5357 H         1 UNK         0.3172 
     96 H96        26.7239  -26.7778  -42.0711 H         1 UNK         0.0595 
     97 H97        26.8896  -28.2768  -44.0521 H         1 UNK         0.0839 
     98 H98        25.7652  -26.9590  -44.3357 H         1 UNK         0.0839 
     99 H99        25.1599  -28.5775  -43.9874 H         1 UNK         0.0839 
    100 H100       24.4789  -29.6036  -41.6754 H         1 UNK         0.2998 
    101 H101       26.5848  -31.0355  -40.1231 H         1 UNK         0.0822 
    102 H102       26.3728  -32.9730  -41.6671 H         1 UNK         0.0787 
    103 H103       25.2344  -32.0829  -42.6674 H         1 UNK         0.0787 
    104 H104       26.9148  -31.5610  -42.5539 H         1 UNK         0.0787 
    105 H105       23.5818  -29.9644  -39.8344 H         1 UNK         0.3055 
    106 H106       21.7334  -30.5060  -38.7207 H         1 UNK         0.1106 
    107 H107       23.2834  -31.1381  -36.8671 H         1 UNK         0.0828 
    108 H108       21.7960  -32.0696  -36.8490 H         1 UNK         0.0828 
    109 H109       23.2762  -32.8085  -37.4327 H         1 UNK         0.0828 
    110 H110       21.8652  -31.2926  -41.3301 H         1 UNK         0.2931 
    111 H111       20.7150  -32.3356  -42.8775 H         1 UNK         0.0412 
    112 H112       21.3415  -36.1331  -42.9255 H         1 UNK         0.3472 
    113 H113       19.8009  -35.3410  -42.7248 H         1 UNK         0.3472 
    114 H114       18.6942  -33.7201  -42.4452 H         1 UNK         0.0970 
    115 H115       19.0420  -33.7482  -40.7437 H         1 UNK         0.0970 
    116 H116       16.5905  -32.8767  -42.7112 H         1 UNK         0.0612 
    117 H117       15.9263  -31.3914  -42.0981 H         1 UNK         0.0612 
@<TRIPOS>BOND
     1    1    2 1    
     2    1   62 1    
     3    1   63 1    
     4    1   64 1    
     5    2    3 2    
     6    2    4 am   BACKBONE|DICT|INTERRES
     7    4    5 1    
     8    4   65 1    
     9    5    6 1    
    10    5   25 1    
    11    5   66 1    
    12    6    7 1    
    13    6   67 1    
    14    6   68 1    
    15    7    8 1    
    16    8    9 1    
    17    8   69 1    
    18    8   70 1    
    19    9   10 ar   
    20    9   14 ar   
    21   10   11 ar   
    22   10   71 1    
    23   11   12 ar   
    24   11   61 1    
    25   12   13 ar   
    26   12   72 1    
    27   13   14 ar   
    28   13   15 1    
    29   14   73 1    
    30   15   16 1    
    31   15   74 1    
    32   15   75 1    
    33   16   17 1    
    34   17   18 1    
    35   17   76 1    
    36   17   77 1    
    37   18   19 1    
    38   18   27 1    
    39   18   78 1    
    40   19   20 am   BACKBONE|DICT|INTERRES
    41   19   79 1    
    42   20   21 2    
    43   20   22 1    
    44   22   23 1    
    45   22   24 1    
    46   22   80 1    
    47   23   81 1    
    48   23   82 1    
    49   23   83 1    
    50   24   25 am   BACKBONE|DICT|INTERRES
    51   24   84 1    
    52   25   26 2    
    53   27   28 2    
    54   27   29 am   BACKBONE|DICT|INTERRES
    55   29   30 1    
    56   29   85 1    
    57   30   31 1    
    58   30   32 1    
    59   30   86 1    
    60   31   87 1    
    61   31   88 1    
    62   31   89 1    
    63   32   33 2    
    64   32   34 am   BACKBONE|DICT|INTERRES
    65   34   35 1    
    66   34   90 1    
    67   35   36 1    
    68   35   37 1    
    69   35   91 1    
    70   36   92 1    
    71   36   93 1    
    72   36   94 1    
    73   37   38 2    
    74   37   39 am   BACKBONE|DICT|INTERRES
    75   39   40 1    
    76   39   95 1    
    77   40   41 1    
    78   40   42 1    
    79   40   96 1    
    80   41   97 1    
    81   41   98 1    
    82   41   99 1    
    83   42   43 2    
    84   42   44 am   BACKBONE|DICT|INTERRES
    85   44   45 1    
    86   44  100 1    
    87   45   46 1    
    88   45   47 1    
    89   45  101 1    
    90   46  102 1    
    91   46  103 1    
    92   46  104 1    
    93   47   48 2    
    94   47   49 am   BACKBONE|DICT|INTERRES
    95   49   50 1    
    96   49  105 1    
    97   50   51 1    
    98   50   52 1    
    99   50  106 1    
   100   51  107 1    
   101   51  108 1    
   102   51  109 1    
   103   52   53 2    
   104   52   54 am   BACKBONE|DICT|INTERRES
   105   54   55 1    
   106   54  110 1    
   107   55   56 1    
   108   55   59 1    
   109   55  111 1    
   110   56   57 am   BACKBONE|DICT|INTERRES
   111   56   58 2    
   112   57  112 1    
   113   57  113 1    
   114   59   60 1    
   115   59  114 1    
   116   59  115 1    
   117   60   61 1    
   118   61  116 1    
   119   61  117 1    
@<TRIPOS>SUBSTRUCTURE
     1 UNK         1 GROUP             0       ****    0 ROOT    
