@<TRIPOS>MOLECULE
3R8
117   119    1
SMALL
USER_CHARGES


@<TRIPOS>ATOM
      1 CA         17.0313  -23.0732  -39.9992 C.3       0 UNK        -0.2013 
      2 C          17.4328  -23.5494  -41.3872 C.2       0 UNK         0.4866 
      3 O          17.7646  -22.7302  -42.2447 O.2       0 UNK        -0.5176 
      4 N          17.3969  -24.8673  -41.6171 N.am      1 UNK        -0.4884 
      5 CA         17.8317  -25.5249  -42.8527 C.3       1 UNK         0.0853 
      6 C6         17.3197  -26.9873  -42.9471 C.3       10 UNK        -0.0849 
      7 S7         17.4564  -27.9615  -41.4013 S.3       10 UNK        -0.2776 
      8 C8         18.9432  -28.9709  -41.6799 C.3       10 UNK         0.0316 
      9 C9         18.7285  -30.0465  -42.7272 C.ar      10 UNK        -0.0863 
     10 C10        18.1194  -31.2544  -42.3876 C.ar      10 UNK        -0.1009 
     11 C11        17.9816  -32.2740  -43.3365 C.ar      10 UNK        -0.0712 
     12 C12        18.3980  -32.0423  -44.6537 C.ar      10 UNK        -0.0894 
     13 C13        18.9785  -30.8204  -45.0147 C.ar      10 UNK        -0.0745 
     14 C14        19.1718  -29.8456  -44.0318 C.ar      10 UNK        -0.0972 
     15 C15        19.4130  -30.5676  -46.4561 C.3       10 UNK         0.0209 
     16 S16        19.1066  -28.8454  -46.9951 S.3       10 UNK        -0.2568 
     17 C17        20.7134  -28.3760  -47.7244 C.3       10 UNK        -0.0983 
     18 CA         21.7481  -27.7567  -46.7417 C.3       3 UNK         0.0876 
     19 N          21.1896  -26.6574  -45.9464 N.am      3 UNK        -0.4424 
     20 C          21.9283  -25.7094  -45.3529 C.2       2 UNK         0.4918 
     21 O          23.1510  -25.6275  -45.4768 O.2       2 UNK        -0.4875 
     22 CA         21.2054  -24.6522  -44.5009 C.3       2 UNK         0.0481 
     23 CB         21.2493  -23.2865  -45.2072 C.3       2 UNK        -0.1831 
     24 N          19.8061  -24.9813  -44.2082 N.am      2 UNK        -0.4498 
     25 C          19.3627  -25.4183  -43.0213 C.2       1 UNK         0.5027 
     26 O          20.0992  -25.7099  -42.0756 O.2       1 UNK        -0.4969 
     27 C          22.4344  -28.8170  -45.8528 C.2       3 UNK         0.5005 
     28 O          22.2103  -28.8560  -44.6394 O.2       3 UNK        -0.5279 
     29 N          23.2478  -29.6740  -46.4890 N.am      4 UNK        -0.4463 
     30 CA         24.0214  -30.7610  -45.8807 C.3       4 UNK         0.0283 
     31 CB         23.0854  -31.8897  -45.3903 C.3       4 UNK        -0.1875 
     32 C          24.9905  -30.2227  -44.8103 C.2       4 UNK         0.4949 
     33 O          25.8587  -29.4159  -45.1466 O.2       4 UNK        -0.5039 
     34 N          24.8311  -30.6600  -43.5554 N.am      5 UNK        -0.4663 
     35 CA         25.6203  -30.1956  -42.4131 C.3       5 UNK         0.0242 
     36 CB         25.5489  -31.2559  -41.3008 C.3       5 UNK        -0.1982 
     37 C          25.1763  -28.8206  -41.8762 C.2       5 UNK         0.5017 
     38 O          25.9546  -28.2029  -41.1480 O.2       5 UNK        -0.5012 
     39 N          23.9566  -28.3842  -42.2345 N.am      6 UNK        -0.4439 
     40 CA         23.1944  -27.2379  -41.7207 C.3       6 UNK         0.0297 
     41 CB         23.9608  -25.9095  -41.8696 C.3       6 UNK        -0.2006 
     42 C          22.7154  -27.4553  -40.2734 C.2       6 UNK         0.4892 
     43 O          23.4328  -28.0336  -39.4557 O.2       6 UNK        -0.5089 
     44 N          21.4855  -27.0066  -39.9850 N.am      7 UNK        -0.4243 
     45 CA         20.7282  -27.1336  -38.7253 C.3       7 UNK         0.0196 
     46 CB         21.4416  -26.4126  -37.5652 C.3       7 UNK        -0.2007 
     47 C          20.3358  -28.5743  -38.3269 C.2       7 UNK         0.5020 
     48 O          19.2917  -28.7552  -37.7008 O.2       7 UNK        -0.5147 
     49 N          21.1333  -29.5696  -38.7226 N.am      8 UNK        -0.4734 
     50 CA         20.8523  -31.0011  -38.6621 C.3       8 UNK         0.0238 
     51 CB         21.7454  -31.6405  -37.5861 C.3       8 UNK        -0.1912 
     52 C          21.1373  -31.6135  -40.0425 C.2       8 UNK         0.5038 
     53 O          21.8587  -31.0092  -40.8416 O.2       8 UNK        -0.5046 
     54 N          20.5623  -32.7950  -40.2975 N.am      9 UNK        -0.4200 
     55 CA         20.7257  -33.5461  -41.5527 C.3       9 UNK         0.0839 
     56 C          22.1723  -34.0742  -41.7643 C.2       9 UNK         0.5513 
     57 N          22.5506  -34.3536  -43.0038 N.am      9 UNK        -0.7519 
     58 O          22.9331  -34.2811  -40.8209 O.2       9 UNK        -0.4960 
     59 C59        19.6976  -34.7054  -41.6911 C.3       10 UNK        -0.0876 
     60 S60        17.9653  -34.2440  -41.3348 S.3       10 UNK        -0.2414 
     61 C61        17.3759  -33.6202  -42.9487 C.3       10 UNK         0.0169 
     62 H62        16.1819  -22.3940  -40.0663 H         1 UNK         0.0903 
     63 H63        16.7525  -23.9020  -39.3486 H         1 UNK         0.0903 
     64 H64        17.8589  -22.5397  -39.5324 H         1 UNK         0.0903 
     65 H65        17.1422  -25.5021  -40.8728 H         1 UNK         0.3096 
     66 H66        17.3750  -24.9736  -43.6781 H         1 UNK         0.1121 
     67 H67        17.7855  -27.5139  -43.7797 H         1 UNK         0.0849 
     68 H68        16.2579  -26.9636  -43.1968 H         1 UNK         0.0849 
     69 H69        19.7905  -28.3384  -41.9448 H         1 UNK         0.0865 
     70 H70        19.2050  -29.4530  -40.7413 H         1 UNK         0.0865 
     71 H71        17.7817  -31.4105  -41.3724 H         1 UNK         0.1346 
     72 H72        18.2708  -32.8151  -45.3995 H         1 UNK         0.1412 
     73 H73        19.6595  -28.9150  -44.2828 H         1 UNK         0.1426 
     74 H74        18.8803  -31.2347  -47.1354 H         1 UNK         0.0716 
     75 H75        20.4689  -30.8181  -46.5465 H         1 UNK         0.0716 
     76 H76        20.4951  -27.6406  -48.5003 H         1 UNK         0.0695 
     77 H77        21.1308  -29.2302  -48.2605 H         1 UNK         0.0695 
     78 H78        22.5428  -27.3283  -47.3574 H         1 UNK         0.0983 
     79 H79        20.1963  -26.6906  -45.7788 H         1 UNK         0.3095 
     80 H80        21.7682  -24.5570  -43.5704 H         1 UNK         0.0454 
     81 H81        22.2773  -22.9806  -45.4064 H         1 UNK         0.0851 
     82 H82        20.7969  -22.5084  -44.5921 H         1 UNK         0.0851 
     83 H83        20.7248  -23.3067  -46.1633 H         1 UNK         0.0851 
     84 H84        19.1345  -24.7530  -44.9280 H         1 UNK         0.2976 
     85 H85        23.4007  -29.5425  -47.4794 H         1 UNK         0.3116 
     86 H86        24.6469  -31.1768  -46.6721 H         1 UNK         0.0646 
     87 H87        22.4050  -31.5589  -44.6040 H         1 UNK         0.0847 
     88 H88        22.4773  -32.2746  -46.2085 H         1 UNK         0.0847 
     89 H89        23.6619  -32.7314  -45.0059 H         1 UNK         0.0847 
     90 H90        24.0783  -31.3036  -43.3560 H         1 UNK         0.3040 
     91 H91        26.6633  -30.0995  -42.7240 H         1 UNK         0.1015 
     92 H92        26.1518  -30.9612  -40.4408 H         1 UNK         0.0786 
     93 H93        25.9243  -32.2200  -41.6441 H         1 UNK         0.0786 
     94 H94        24.5277  -31.4008  -40.9461 H         1 UNK         0.0786 
     95 H95        23.4348  -28.9619  -42.8860 H         1 UNK         0.3172 
     96 H96        22.3119  -27.1832  -42.3595 H         1 UNK         0.0595 
     97 H97        24.8211  -25.8555  -41.2022 H         1 UNK         0.0839 
     98 H98        23.3153  -25.0643  -41.6285 H         1 UNK         0.0839 
     99 H99        24.3152  -25.7680  -42.8905 H         1 UNK         0.0839 
    100 H100       20.9763  -26.5385  -40.7358 H         1 UNK         0.2998 
    101 H101       19.7896  -26.6072  -38.9078 H         1 UNK         0.0822 
    102 H102       20.8189  -26.4088  -36.6696 H         1 UNK         0.0787 
    103 H103       21.6557  -25.3737  -37.8160 H         1 UNK         0.0787 
    104 H104       22.3825  -26.8959  -37.3009 H         1 UNK         0.0787 
    105 H105       21.9786  -29.3208  -39.2299 H         1 UNK         0.3055 
    106 H106       19.8008  -31.1699  -38.4183 H         1 UNK         0.1106 
    107 H107       21.5571  -31.2033  -36.6054 H         1 UNK         0.0828 
    108 H108       21.5593  -32.7121  -37.5044 H         1 UNK         0.0828 
    109 H109       22.8044  -31.5092  -37.8132 H         1 UNK         0.0828 
    110 H110       19.9965  -33.2388  -39.5900 H         1 UNK         0.2931 
    111 H111       20.5373  -32.8375  -42.3610 H         1 UNK         0.0412 
    112 H112       21.9250  -34.2234  -43.7826 H         1 UNK         0.3472 
    113 H113       23.4730  -34.7296  -43.1575 H         1 UNK         0.3472 
    114 H114       19.7430  -35.1359  -42.6930 H         1 UNK         0.0970 
    115 H115       19.9585  -35.5170  -41.0090 H         1 UNK         0.0970 
    116 H116       16.2922  -33.5080  -42.9017 H         1 UNK         0.0612 
    117 H117       17.5772  -34.3724  -43.7129 H         1 UNK         0.0612 
@<TRIPOS>BOND
     1    1    2 1    
     2    1   62 1    
     3    1   63 1    
     4    1   64 1    
     5    2    3 2    
     6    2    4 am   BACKBONE|DICT|INTERRES
     7    4    5 1    
     8    4   65 1    
     9    5    6 1    
    10    5   25 1    
    11    5   66 1    
    12    6    7 1    
    13    6   67 1    
    14    6   68 1    
    15    7    8 1    
    16    8    9 1    
    17    8   69 1    
    18    8   70 1    
    19    9   10 ar   
    20    9   14 ar   
    21   10   11 ar   
    22   10   71 1    
    23   11   12 ar   
    24   11   61 1    
    25   12   13 ar   
    26   12   72 1    
    27   13   14 ar   
    28   13   15 1    
    29   14   73 1    
    30   15   16 1    
    31   15   74 1    
    32   15   75 1    
    33   16   17 1    
    34   17   18 1    
    35   17   76 1    
    36   17   77 1    
    37   18   19 1    
    38   18   27 1    
    39   18   78 1    
    40   19   20 am   BACKBONE|DICT|INTERRES
    41   19   79 1    
    42   20   21 2    
    43   20   22 1    
    44   22   23 1    
    45   22   24 1    
    46   22   80 1    
    47   23   81 1    
    48   23   82 1    
    49   23   83 1    
    50   24   25 am   BACKBONE|DICT|INTERRES
    51   24   84 1    
    52   25   26 2    
    53   27   28 2    
    54   27   29 am   BACKBONE|DICT|INTERRES
    55   29   30 1    
    56   29   85 1    
    57   30   31 1    
    58   30   32 1    
    59   30   86 1    
    60   31   87 1    
    61   31   88 1    
    62   31   89 1    
    63   32   33 2    
    64   32   34 am   BACKBONE|DICT|INTERRES
    65   34   35 1    
    66   34   90 1    
    67   35   36 1    
    68   35   37 1    
    69   35   91 1    
    70   36   92 1    
    71   36   93 1    
    72   36   94 1    
    73   37   38 2    
    74   37   39 am   BACKBONE|DICT|INTERRES
    75   39   40 1    
    76   39   95 1    
    77   40   41 1    
    78   40   42 1    
    79   40   96 1    
    80   41   97 1    
    81   41   98 1    
    82   41   99 1    
    83   42   43 2    
    84   42   44 am   BACKBONE|DICT|INTERRES
    85   44   45 1    
    86   44  100 1    
    87   45   46 1    
    88   45   47 1    
    89   45  101 1    
    90   46  102 1    
    91   46  103 1    
    92   46  104 1    
    93   47   48 2    
    94   47   49 am   BACKBONE|DICT|INTERRES
    95   49   50 1    
    96   49  105 1    
    97   50   51 1    
    98   50   52 1    
    99   50  106 1    
   100   51  107 1    
   101   51  108 1    
   102   51  109 1    
   103   52   53 2    
   104   52   54 am   BACKBONE|DICT|INTERRES
   105   54   55 1    
   106   54  110 1    
   107   55   56 1    
   108   55   59 1    
   109   55  111 1    
   110   56   57 am   BACKBONE|DICT|INTERRES
   111   56   58 2    
   112   57  112 1    
   113   57  113 1    
   114   59   60 1    
   115   59  114 1    
   116   59  115 1    
   117   60   61 1    
   118   61  116 1    
   119   61  117 1    
@<TRIPOS>SUBSTRUCTURE
     1 UNK         1 GROUP             0       ****    0 ROOT    
