@<TRIPOS>MOLECULE
3R8
117   119    1
SMALL
USER_CHARGES


@<TRIPOS>ATOM
      1 CA         15.2462  -22.1716  -44.9988 C.3       0 UNK        -0.2013 
      2 C          16.1238  -23.3910  -44.7614 C.2       0 UNK         0.4866 
      3 O          15.7891  -24.2323  -43.9270 O.2       0 UNK        -0.5176 
      4 N          17.2547  -23.4863  -45.4750 N.am      1 UNK        -0.4884 
      5 CA         18.2530  -24.5695  -45.4526 C.3       1 UNK         0.0853 
      6 C6         17.6469  -25.9645  -45.7744 C.3       10 UNK        -0.0849 
      7 S7         18.8372  -27.0808  -46.5892 S.3       10 UNK        -0.2776 
      8 C8         17.7619  -28.4764  -47.0543 C.3       10 UNK         0.0316 
      9 C9         17.6794  -29.5153  -45.9453 C.ar      10 UNK        -0.0863 
     10 C10        18.5224  -30.6307  -45.9663 C.ar      10 UNK        -0.1009 
     11 C11        18.4638  -31.5885  -44.9492 C.ar      10 UNK        -0.0712 
     12 C12        17.5516  -31.4224  -43.9031 C.ar      10 UNK        -0.0894 
     13 C13        16.7064  -30.3091  -43.8683 C.ar      10 UNK        -0.0745 
     14 C14        16.7619  -29.3684  -44.9014 C.ar      10 UNK        -0.0972 
     15 C15        15.7453  -30.1119  -42.7049 C.3       10 UNK         0.0209 
     16 S16        16.2001  -28.6729  -41.6828 S.3       10 UNK        -0.2568 
     17 C17        17.8685  -29.1292  -41.0906 C.3       10 UNK        -0.0983 
     18 CA         19.0038  -28.4620  -41.9159 C.3       3 UNK         0.0876 
     19 N          18.8411  -26.9986  -41.9599 N.am      3 UNK        -0.4424 
     20 C          19.4906  -26.0130  -41.3217 C.2       2 UNK         0.4918 
     21 O          20.4344  -26.1734  -40.5473 O.2       2 UNK        -0.4875 
     22 CA         19.0056  -24.5829  -41.6408 C.3       2 UNK         0.0481 
     23 CB         20.0815  -23.5097  -41.3668 C.3       2 UNK        -0.1831 
     24 N          18.4582  -24.4580  -42.9996 N.am      2 UNK        -0.4498 
     25 C          19.1068  -24.6048  -44.1653 C.2       1 UNK         0.5027 
     26 O          20.3225  -24.7711  -44.2559 O.2       1 UNK        -0.4969 
     27 C          20.4089  -28.9745  -41.5033 C.2       3 UNK         0.5005 
     28 O          20.5339  -29.5810  -40.4393 O.2       3 UNK        -0.5279 
     29 N          21.4708  -28.7484  -42.2893 N.am      4 UNK        -0.4463 
     30 CA         21.5448  -27.9952  -43.5436 C.3       4 UNK         0.0283 
     31 CB         21.6483  -28.9721  -44.7251 C.3       4 UNK        -0.1875 
     32 C          22.7467  -27.0488  -43.4449 C.2       4 UNK         0.4949 
     33 O          23.6656  -27.1272  -44.2624 O.2       4 UNK        -0.5039 
     34 N          22.7690  -26.2457  -42.3696 N.am      5 UNK        -0.4663 
     35 CA         23.8721  -25.4182  -41.8575 C.3       5 UNK         0.0242 
     36 CB         24.3680  -24.3901  -42.8929 C.3       5 UNK        -0.1982 
     37 C          25.0188  -26.2718  -41.2872 C.2       5 UNK         0.5017 
     38 O          25.4282  -26.0542  -40.1465 O.2       5 UNK        -0.5012 
     39 N          25.4643  -27.2675  -42.0620 N.am      6 UNK        -0.4439 
     40 CA         26.2211  -28.4225  -41.5908 C.3       6 UNK         0.0297 
     41 CB         26.8730  -29.1204  -42.7951 C.3       6 UNK        -0.2006 
     42 C          25.2815  -29.3927  -40.8549 C.2       6 UNK         0.4892 
     43 O          24.1176  -29.5360  -41.2418 O.2       6 UNK        -0.5089 
     44 N          25.8195  -30.0676  -39.8329 N.am      7 UNK        -0.4243 
     45 CA         25.0968  -31.0068  -38.9678 C.3       7 UNK         0.0196 
     46 CB         25.8527  -31.1235  -37.6324 C.3       7 UNK        -0.2007 
     47 C          24.8672  -32.3994  -39.5886 C.2       7 UNK         0.5020 
     48 O          24.2867  -33.2581  -38.9242 O.2       7 UNK        -0.5147 
     49 N          25.3200  -32.6164  -40.8325 N.am      8 UNK        -0.4734 
     50 CA         25.2537  -33.8876  -41.5671 C.3       8 UNK         0.0238 
     51 CB         25.9404  -33.7126  -42.9316 C.3       8 UNK        -0.1912 
     52 C          23.8349  -34.4603  -41.7516 C.2       8 UNK         0.5038 
     53 O          23.6902  -35.6793  -41.8537 O.2       8 UNK        -0.5046 
     54 N          22.8252  -33.5822  -41.7741 N.am      9 UNK        -0.4200 
     55 CA         21.3989  -33.9413  -41.7961 C.3       9 UNK         0.0839 
     56 C          20.8328  -34.4004  -40.4191 C.2       9 UNK         0.5513 
     57 N          21.5739  -34.3252  -39.3196 N.am      9 UNK        -0.7519 
     58 O          19.6913  -34.8485  -40.3498 O.2       9 UNK        -0.4960 
     59 C59        20.5398  -32.8043  -42.4051 C.3       10 UNK        -0.0876 
     60 S60        20.9644  -32.4866  -44.1515 S.3       10 UNK        -0.2414 
     61 C61        19.3814  -32.8030  -44.9936 C.3       10 UNK         0.0169 
     62 H62        15.1382  -21.6021  -44.0760 H         1 UNK         0.0903 
     63 H63        15.6615  -21.5104  -45.7592 H         1 UNK         0.0903 
     64 H64        14.2542  -22.4826  -45.3252 H         1 UNK         0.0903 
     65 H65        17.4768  -22.7341  -46.1139 H         1 UNK         0.3096 
     66 H66        18.9421  -24.3131  -46.2598 H         1 UNK         0.1121 
     67 H67        16.8016  -25.8473  -46.4545 H         1 UNK         0.0849 
     68 H68        17.2442  -26.4414  -44.8796 H         1 UNK         0.0849 
     69 H69        16.7647  -28.1190  -47.3154 H         1 UNK         0.0865 
     70 H70        18.1607  -28.9339  -47.9610 H         1 UNK         0.0865 
     71 H71        19.2339  -30.7508  -46.7721 H         1 UNK         0.1346 
     72 H72        17.5005  -32.1575  -43.1125 H         1 UNK         0.1412 
     73 H73        16.1030  -28.5114  -44.8774 H         1 UNK         0.1426 
     74 H74        14.7367  -29.9654  -43.0937 H         1 UNK         0.0716 
     75 H75        15.7048  -31.0010  -42.0736 H         1 UNK         0.0716 
     76 H76        17.9641  -30.2166  -41.1065 H         1 UNK         0.0695 
     77 H77        17.9428  -28.8332  -40.0426 H         1 UNK         0.0695 
     78 H78        18.8797  -28.7979  -42.9460 H         1 UNK         0.0983 
     79 H79        18.0825  -26.7003  -42.5542 H         1 UNK         0.3095 
     80 H80        18.1721  -24.3903  -40.9642 H         1 UNK         0.0454 
     81 H81        19.7162  -22.5113  -41.6062 H         1 UNK         0.0851 
     82 H82        20.3680  -23.5040  -40.3145 H         1 UNK         0.0851 
     83 H83        20.9888  -23.6830  -41.9461 H         1 UNK         0.0851 
     84 H84        17.4501  -24.3286  -43.0662 H         1 UNK         0.2976 
     85 H85        22.3748  -29.0651  -41.9428 H         1 UNK         0.3116 
     86 H86        20.6687  -27.3731  -43.7086 H         1 UNK         0.0646 
     87 H87        20.7606  -29.5969  -44.7883 H         1 UNK         0.0847 
     88 H88        21.7316  -28.4359  -45.6712 H         1 UNK         0.0847 
     89 H89        22.5157  -29.6272  -44.6365 H         1 UNK         0.0847 
     90 H90        21.9745  -26.3091  -41.7381 H         1 UNK         0.3040 
     91 H91        23.4511  -24.8592  -41.0198 H         1 UNK         0.1015 
     92 H92        24.8637  -24.8620  -43.7414 H         1 UNK         0.0786 
     93 H93        25.0866  -23.7048  -42.4417 H         1 UNK         0.0786 
     94 H94        23.5434  -23.7900  -43.2783 H         1 UNK         0.0786 
     95 H95        25.0107  -27.3623  -42.9677 H         1 UNK         0.3172 
     96 H96        27.0033  -28.0819  -40.9090 H         1 UNK         0.0595 
     97 H97        26.1270  -29.4884  -43.5014 H         1 UNK         0.0839 
     98 H98        27.4724  -29.9747  -42.4777 H         1 UNK         0.0839 
     99 H99        27.5366  -28.4434  -43.3333 H         1 UNK         0.0839 
    100 H100       26.7906  -29.9066  -39.6041 H         1 UNK         0.2998 
    101 H101       24.1083  -30.5900  -38.7611 H         1 UNK         0.0822 
    102 H102       25.3168  -31.7647  -36.9309 H         1 UNK         0.0787 
    103 H103       25.9650  -30.1508  -37.1531 H         1 UNK         0.0787 
    104 H104       26.8476  -31.5496  -37.7679 H         1 UNK         0.0787 
    105 H105       25.7727  -31.8466  -41.3023 H         1 UNK         0.3055 
    106 H106       25.8176  -34.6240  -40.9902 H         1 UNK         0.1106 
    107 H107       25.9324  -34.6465  -43.4958 H         1 UNK         0.0828 
    108 H108       25.4394  -32.9598  -43.5417 H         1 UNK         0.0828 
    109 H109       26.9832  -33.4156  -42.8182 H         1 UNK         0.0828 
    110 H110       23.0405  -32.6007  -41.6812 H         1 UNK         0.2931 
    111 H111       21.2903  -34.8079  -42.4515 H         1 UNK         0.0412 
    112 H112       21.1816  -34.6352  -38.4448 H         1 UNK         0.3472 
    113 H113       22.5231  -33.9655  -39.3412 H         1 UNK         0.3472 
    114 H114       19.4800  -33.0492  -42.3336 H         1 UNK         0.0970 
    115 H115       20.6731  -31.8834  -41.8382 H         1 UNK         0.0970 
    116 H116       19.5902  -33.0648  -46.0320 H         1 UNK         0.0612 
    117 H117       18.8910  -33.6748  -44.5578 H         1 UNK         0.0612 
@<TRIPOS>BOND
     1    1    2 1    
     2    1   62 1    
     3    1   63 1    
     4    1   64 1    
     5    2    3 2    
     6    2    4 am   BACKBONE|DICT|INTERRES
     7    4    5 1    
     8    4   65 1    
     9    5    6 1    
    10    5   25 1    
    11    5   66 1    
    12    6    7 1    
    13    6   67 1    
    14    6   68 1    
    15    7    8 1    
    16    8    9 1    
    17    8   69 1    
    18    8   70 1    
    19    9   10 ar   
    20    9   14 ar   
    21   10   11 ar   
    22   10   71 1    
    23   11   12 ar   
    24   11   61 1    
    25   12   13 ar   
    26   12   72 1    
    27   13   14 ar   
    28   13   15 1    
    29   14   73 1    
    30   15   16 1    
    31   15   74 1    
    32   15   75 1    
    33   16   17 1    
    34   17   18 1    
    35   17   76 1    
    36   17   77 1    
    37   18   19 1    
    38   18   27 1    
    39   18   78 1    
    40   19   20 am   BACKBONE|DICT|INTERRES
    41   19   79 1    
    42   20   21 2    
    43   20   22 1    
    44   22   23 1    
    45   22   24 1    
    46   22   80 1    
    47   23   81 1    
    48   23   82 1    
    49   23   83 1    
    50   24   25 am   BACKBONE|DICT|INTERRES
    51   24   84 1    
    52   25   26 2    
    53   27   28 2    
    54   27   29 am   BACKBONE|DICT|INTERRES
    55   29   30 1    
    56   29   85 1    
    57   30   31 1    
    58   30   32 1    
    59   30   86 1    
    60   31   87 1    
    61   31   88 1    
    62   31   89 1    
    63   32   33 2    
    64   32   34 am   BACKBONE|DICT|INTERRES
    65   34   35 1    
    66   34   90 1    
    67   35   36 1    
    68   35   37 1    
    69   35   91 1    
    70   36   92 1    
    71   36   93 1    
    72   36   94 1    
    73   37   38 2    
    74   37   39 am   BACKBONE|DICT|INTERRES
    75   39   40 1    
    76   39   95 1    
    77   40   41 1    
    78   40   42 1    
    79   40   96 1    
    80   41   97 1    
    81   41   98 1    
    82   41   99 1    
    83   42   43 2    
    84   42   44 am   BACKBONE|DICT|INTERRES
    85   44   45 1    
    86   44  100 1    
    87   45   46 1    
    88   45   47 1    
    89   45  101 1    
    90   46  102 1    
    91   46  103 1    
    92   46  104 1    
    93   47   48 2    
    94   47   49 am   BACKBONE|DICT|INTERRES
    95   49   50 1    
    96   49  105 1    
    97   50   51 1    
    98   50   52 1    
    99   50  106 1    
   100   51  107 1    
   101   51  108 1    
   102   51  109 1    
   103   52   53 2    
   104   52   54 am   BACKBONE|DICT|INTERRES
   105   54   55 1    
   106   54  110 1    
   107   55   56 1    
   108   55   59 1    
   109   55  111 1    
   110   56   57 am   BACKBONE|DICT|INTERRES
   111   56   58 2    
   112   57  112 1    
   113   57  113 1    
   114   59   60 1    
   115   59  114 1    
   116   59  115 1    
   117   60   61 1    
   118   61  116 1    
   119   61  117 1    
@<TRIPOS>SUBSTRUCTURE
     1 UNK         1 GROUP             0       ****    0 ROOT    
