@<TRIPOS>MOLECULE
3R8
117   119    1
SMALL
USER_CHARGES


@<TRIPOS>ATOM
      1 CA         18.3234  -23.6543  -45.9785 C.3       0 UNK        -0.2013 
      2 C          18.1731  -24.8079  -44.9990 C.2       0 UNK         0.4866 
      3 O          18.9491  -24.9047  -44.0470 O.2       0 UNK        -0.5176 
      4 N          17.1833  -25.6829  -45.2292 N.am      1 UNK        -0.4884 
      5 CA         16.8759  -26.8772  -44.4286 C.3       1 UNK         0.0853 
      6 C6         15.6455  -27.6448  -44.9801 C.3       10 UNK        -0.0849 
      7 S7         15.7197  -27.9660  -46.7769 S.3       10 UNK        -0.2776 
      8 C8         16.1061  -29.7503  -46.8469 C.3       10 UNK         0.0316 
      9 C9         17.5472  -30.1179  -46.4921 C.ar      10 UNK        -0.0863 
     10 C10        17.8146  -31.3969  -45.9929 C.ar      10 UNK        -0.1009 
     11 C11        19.1230  -31.7948  -45.6942 C.ar      10 UNK        -0.0712 
     12 C12        20.1729  -30.8953  -45.9021 C.ar      10 UNK        -0.0894 
     13 C13        19.9274  -29.6191  -46.4155 C.ar      10 UNK        -0.0745 
     14 C14        18.6158  -29.2397  -46.7125 C.ar      10 UNK        -0.0972 
     15 C15        21.0792  -28.6687  -46.7129 C.3       10 UNK         0.0209 
     16 S16        21.0468  -27.1835  -45.6625 S.3       10 UNK        -0.2568 
     17 C17        21.8371  -27.7855  -44.1363 C.3       10 UNK        -0.0983 
     18 CA         21.3004  -27.0611  -42.8694 C.3       3 UNK         0.0876 
     19 N          19.8727  -27.3122  -42.6213 N.am      3 UNK        -0.4424 
     20 C          19.3380  -28.4918  -42.2692 C.2       2 UNK         0.4918 
     21 O          20.0112  -29.5064  -42.0880 O.2       2 UNK        -0.4875 
     22 CA         17.8123  -28.5797  -42.0548 C.3       2 UNK         0.0481 
     23 CB         17.4925  -29.3625  -40.7672 C.3       2 UNK        -0.1831 
     24 N          17.1322  -27.2847  -41.9610 N.am      2 UNK        -0.4498 
     25 C          16.6421  -26.5123  -42.9403 C.2       1 UNK         0.5027 
     26 O          15.9880  -25.5022  -42.6762 O.2       1 UNK        -0.4969 
     27 C          22.1531  -27.3540  -41.6139 C.2       3 UNK         0.5005 
     28 O          23.1794  -28.0298  -41.7060 O.2       3 UNK        -0.5279 
     29 N          21.6994  -26.8617  -40.4502 N.am      4 UNK        -0.4463 
     30 CA         22.2773  -27.1189  -39.1223 C.3       4 UNK         0.0283 
     31 CB         21.4190  -26.4222  -38.0547 C.3       4 UNK        -0.1875 
     32 C          23.7565  -26.7216  -38.9632 C.2       4 UNK         0.4949 
     33 O          24.4608  -27.3266  -38.1557 O.2       4 UNK        -0.5039 
     34 N          24.2021  -25.7293  -39.7429 N.am      5 UNK        -0.4663 
     35 CA         25.5906  -25.2682  -39.7985 C.3       5 UNK         0.0242 
     36 CB         25.5993  -23.8076  -40.2822 C.3       5 UNK        -0.1982 
     37 C          26.4981  -26.1382  -40.6922 C.2       5 UNK         0.5017 
     38 O          27.7060  -25.8959  -40.7113 O.2       5 UNK        -0.5012 
     39 N          25.9255  -27.0979  -41.4323 N.am      6 UNK        -0.4439 
     40 CA         26.6233  -27.9369  -42.4018 C.3       6 UNK         0.0297 
     41 CB         26.3974  -27.3734  -43.8209 C.3       6 UNK        -0.2006 
     42 C          26.1838  -29.3980  -42.2282 C.2       6 UNK         0.4892 
     43 O          26.7104  -30.0787  -41.3473 O.2       6 UNK        -0.5089 
     44 N          25.2617  -29.8608  -43.0840 N.am      7 UNK        -0.4243 
     45 CA         24.7951  -31.2471  -43.1679 C.3       7 UNK         0.0196 
     46 CB         23.9069  -31.4036  -44.4121 C.3       7 UNK        -0.2007 
     47 C          24.0524  -31.7525  -41.9191 C.2       7 UNK         0.5020 
     48 O          24.1900  -32.9318  -41.5937 O.2       7 UNK        -0.5147 
     49 N          23.2919  -30.8644  -41.2596 N.am      8 UNK        -0.4734 
     50 CA         22.4831  -31.0969  -40.0556 C.3       8 UNK         0.0238 
     51 CB         23.3962  -31.2317  -38.8202 C.3       8 UNK        -0.1912 
     52 C          21.4997  -32.2738  -40.2080 C.2       8 UNK         0.5038 
     53 O          21.6881  -33.3274  -39.5960 O.2       8 UNK        -0.5046 
     54 N          20.4773  -32.0650  -41.0457 N.am      9 UNK        -0.4200 
     55 CA         19.4330  -33.0431  -41.3952 C.3       9 UNK         0.0839 
     56 C          18.5325  -33.5228  -40.2173 C.2       9 UNK         0.5513 
     57 N          18.4757  -32.8166  -39.0942 N.am      9 UNK        -0.7519 
     58 O          17.8731  -34.5529  -40.3266 O.2       9 UNK        -0.4960 
     59 C59        18.5719  -32.5271  -42.5840 C.3       10 UNK        -0.0876 
     60 S60        18.2931  -33.7813  -43.8744 S.3       10 UNK        -0.2414 
     61 C61        19.4259  -33.2034  -45.1838 C.3       10 UNK         0.0169 
     62 H62        18.2223  -22.7035  -45.4561 H         1 UNK         0.0903 
     63 H63        19.3089  -23.6860  -46.4426 H         1 UNK         0.0903 
     64 H64        17.5744  -23.6894  -46.7694 H         1 UNK         0.0903 
     65 H65        16.5788  -25.5454  -46.0269 H         1 UNK         0.3096 
     66 H66        17.7503  -27.5213  -44.5184 H         1 UNK         0.1121 
     67 H67        14.7311  -27.0765  -44.7967 H         1 UNK         0.0849 
     68 H68        15.5186  -28.5904  -44.4497 H         1 UNK         0.0849 
     69 H69        15.4074  -30.2867  -46.2028 H         1 UNK         0.0865 
     70 H70        15.9118  -30.0995  -47.8617 H         1 UNK         0.0865 
     71 H71        17.0010  -32.0947  -45.8480 H         1 UNK         0.1346 
     72 H72        21.1872  -31.2011  -45.6919 H         1 UNK         0.1412 
     73 H73        18.4388  -28.2580  -47.1294 H         1 UNK         0.1426 
     74 H74        22.0434  -29.1687  -46.6067 H         1 UNK         0.0716 
     75 H75        21.0133  -28.3563  -47.7560 H         1 UNK         0.0716 
     76 H76        21.6948  -28.8630  -44.0506 H         1 UNK         0.0695 
     77 H77        22.9095  -27.6240  -44.2536 H         1 UNK         0.0695 
     78 H78        21.3971  -25.9878  -43.0414 H         1 UNK         0.0983 
     79 H79        19.2700  -26.5149  -42.7944 H         1 UNK         0.3095 
     80 H80        17.4031  -29.1461  -42.8930 H         1 UNK         0.0454 
     81 H81        17.8703  -28.8517  -39.8807 H         1 UNK         0.0851 
     82 H82        16.4182  -29.4995  -40.6423 H         1 UNK         0.0851 
     83 H83        17.9377  -30.3558  -40.7749 H         1 UNK         0.0851 
     84 H84        16.9731  -26.9643  -41.0166 H         1 UNK         0.2976 
     85 H85        20.8470  -26.3202  -40.4694 H         1 UNK         0.3116 
     86 H86        22.2209  -28.1927  -38.9443 H         1 UNK         0.0646 
     87 H87        21.4011  -25.3405  -38.1932 H         1 UNK         0.0847 
     88 H88        20.3902  -26.7822  -38.0727 H         1 UNK         0.0847 
     89 H89        21.8080  -26.6150  -37.0536 H         1 UNK         0.0847 
     90 H90        23.5490  -25.2882  -40.3741 H         1 UNK         0.3040 
     91 H91        26.0129  -25.2960  -38.7913 H         1 UNK         0.1015 
     92 H92        25.2023  -23.7146  -41.2939 H         1 UNK         0.0786 
     93 H93        26.6127  -23.4034  -40.2921 H         1 UNK         0.0786 
     94 H94        25.0064  -23.1687  -39.6273 H         1 UNK         0.0786 
     95 H95        24.9315  -27.2867  -41.3258 H         1 UNK         0.3172 
     96 H96        27.6979  -27.9244  -42.2080 H         1 UNK         0.0595 
     97 H97        26.8384  -28.0215  -44.5797 H         1 UNK         0.0839 
     98 H98        26.8669  -26.3953  -43.9272 H         1 UNK         0.0839 
     99 H99        25.3395  -27.2521  -44.0543 H         1 UNK         0.0839 
    100 H100       24.8689  -29.2121  -43.7490 H         1 UNK         0.2998 
    101 H101       25.6765  -31.8788  -43.2979 H         1 UNK         0.0822 
    102 H102       23.5605  -32.4326  -44.5194 H         1 UNK         0.0787 
    103 H103       23.0250  -30.7675  -44.3499 H         1 UNK         0.0787 
    104 H104       24.4463  -31.1468  -45.3240 H         1 UNK         0.0787 
    105 H105       23.2746  -29.9081  -41.6093 H         1 UNK         0.3055 
    106 H106       21.8701  -30.2060  -39.9197 H         1 UNK         0.1106 
    107 H107       24.0573  -32.0956  -38.8972 H         1 UNK         0.0828 
    108 H108       24.0183  -30.3455  -38.6913 H         1 UNK         0.0828 
    109 H109       22.8074  -31.3512  -37.9100 H         1 UNK         0.0828 
    110 H110       20.3964  -31.1517  -41.4894 H         1 UNK         0.2931 
    111 H111       19.9812  -33.9275  -41.7259 H         1 UNK         0.0412 
    112 H112       17.8920  -33.1393  -38.3384 H         1 UNK         0.3472 
    113 H113       19.0258  -31.9808  -38.9851 H         1 UNK         0.3472 
    114 H114       17.5968  -32.1632  -42.2551 H         1 UNK         0.0970 
    115 H115       19.0402  -31.6629  -43.0521 H         1 UNK         0.0970 
    116 H116       19.3708  -33.8969  -46.0235 H         1 UNK         0.0612 
    117 H117       20.4460  -33.2616  -44.8001 H         1 UNK         0.0612 
@<TRIPOS>BOND
     1    1    2 1    
     2    1   62 1    
     3    1   63 1    
     4    1   64 1    
     5    2    3 2    
     6    2    4 am   BACKBONE|DICT|INTERRES
     7    4    5 1    
     8    4   65 1    
     9    5    6 1    
    10    5   25 1    
    11    5   66 1    
    12    6    7 1    
    13    6   67 1    
    14    6   68 1    
    15    7    8 1    
    16    8    9 1    
    17    8   69 1    
    18    8   70 1    
    19    9   10 ar   
    20    9   14 ar   
    21   10   11 ar   
    22   10   71 1    
    23   11   12 ar   
    24   11   61 1    
    25   12   13 ar   
    26   12   72 1    
    27   13   14 ar   
    28   13   15 1    
    29   14   73 1    
    30   15   16 1    
    31   15   74 1    
    32   15   75 1    
    33   16   17 1    
    34   17   18 1    
    35   17   76 1    
    36   17   77 1    
    37   18   19 1    
    38   18   27 1    
    39   18   78 1    
    40   19   20 am   BACKBONE|DICT|INTERRES
    41   19   79 1    
    42   20   21 2    
    43   20   22 1    
    44   22   23 1    
    45   22   24 1    
    46   22   80 1    
    47   23   81 1    
    48   23   82 1    
    49   23   83 1    
    50   24   25 am   BACKBONE|DICT|INTERRES
    51   24   84 1    
    52   25   26 2    
    53   27   28 2    
    54   27   29 am   BACKBONE|DICT|INTERRES
    55   29   30 1    
    56   29   85 1    
    57   30   31 1    
    58   30   32 1    
    59   30   86 1    
    60   31   87 1    
    61   31   88 1    
    62   31   89 1    
    63   32   33 2    
    64   32   34 am   BACKBONE|DICT|INTERRES
    65   34   35 1    
    66   34   90 1    
    67   35   36 1    
    68   35   37 1    
    69   35   91 1    
    70   36   92 1    
    71   36   93 1    
    72   36   94 1    
    73   37   38 2    
    74   37   39 am   BACKBONE|DICT|INTERRES
    75   39   40 1    
    76   39   95 1    
    77   40   41 1    
    78   40   42 1    
    79   40   96 1    
    80   41   97 1    
    81   41   98 1    
    82   41   99 1    
    83   42   43 2    
    84   42   44 am   BACKBONE|DICT|INTERRES
    85   44   45 1    
    86   44  100 1    
    87   45   46 1    
    88   45   47 1    
    89   45  101 1    
    90   46  102 1    
    91   46  103 1    
    92   46  104 1    
    93   47   48 2    
    94   47   49 am   BACKBONE|DICT|INTERRES
    95   49   50 1    
    96   49  105 1    
    97   50   51 1    
    98   50   52 1    
    99   50  106 1    
   100   51  107 1    
   101   51  108 1    
   102   51  109 1    
   103   52   53 2    
   104   52   54 am   BACKBONE|DICT|INTERRES
   105   54   55 1    
   106   54  110 1    
   107   55   56 1    
   108   55   59 1    
   109   55  111 1    
   110   56   57 am   BACKBONE|DICT|INTERRES
   111   56   58 2    
   112   57  112 1    
   113   57  113 1    
   114   59   60 1    
   115   59  114 1    
   116   59  115 1    
   117   60   61 1    
   118   61  116 1    
   119   61  117 1    
@<TRIPOS>SUBSTRUCTURE
     1 UNK         1 GROUP             0       ****    0 ROOT    
