@<TRIPOS>MOLECULE
3R8
117   119    1
SMALL
USER_CHARGES


@<TRIPOS>ATOM
      1 CA         20.1773  -23.1929  -40.5841 C.3       0 UNK        -0.2013 
      2 C          19.1682  -23.5967  -41.6469 C.2       0 UNK         0.4866 
      3 O          18.1868  -22.8846  -41.8629 O.2       0 UNK        -0.5176 
      4 N          19.3999  -24.7371  -42.3030 N.am      1 UNK        -0.4884 
      5 CA         18.5569  -25.2766  -43.3713 C.3       1 UNK         0.0853 
      6 C6         18.4492  -26.8204  -43.2778 C.3       10 UNK        -0.0849 
      7 S7         17.7265  -27.4023  -41.7057 S.3       10 UNK        -0.2776 
      8 C8         19.0455  -28.4885  -41.0681 C.3       10 UNK         0.0316 
      9 C9         19.2140  -29.7367  -41.9270 C.ar      10 UNK        -0.0863 
     10 C10        18.2833  -30.7776  -41.8519 C.ar      10 UNK        -0.1009 
     11 C11        18.4003  -31.9046  -42.6734 C.ar      10 UNK        -0.0712 
     12 C12        19.4576  -31.9709  -43.5889 C.ar      10 UNK        -0.0894 
     13 C13        20.4104  -30.9508  -43.6549 C.ar      10 UNK        -0.0745 
     14 C14        20.2946  -29.8464  -42.8059 C.ar      10 UNK        -0.0972 
     15 C15        21.5568  -31.0358  -44.6534 C.3       10 UNK         0.0209 
     16 S16        21.0184  -30.7409  -46.3726 S.3       10 UNK        -0.2568 
     17 C17        20.3047  -29.0610  -46.2949 C.3       10 UNK        -0.0983 
     18 CA         21.2038  -27.9373  -46.8804 C.3       3 UNK         0.0876 
     19 N          20.5320  -26.6414  -46.8701 N.am      3 UNK        -0.4424 
     20 C          19.4699  -26.2854  -47.5975 C.2       2 UNK         0.4918 
     21 O          18.9845  -26.9812  -48.4906 O.2       2 UNK        -0.4875 
     22 CA         18.8086  -24.9471  -47.1987 C.3       2 UNK         0.0481 
     23 CB         17.6175  -24.5808  -48.1030 C.3       2 UNK        -0.1831 
     24 N          18.3559  -24.9913  -45.8014 N.am      2 UNK        -0.4498 
     25 C          19.1611  -24.8915  -44.7341 C.2       1 UNK         0.5027 
     26 O          20.3619  -24.6173  -44.8262 O.2       1 UNK        -0.4969 
     27 C          22.5321  -27.7728  -46.1221 C.2       3 UNK         0.5005 
     28 O          23.5944  -28.0044  -46.7015 O.2       3 UNK        -0.5279 
     29 N          22.4538  -27.3315  -44.8585 N.am      4 UNK        -0.4463 
     30 CA         23.5856  -27.0429  -43.9828 C.3       4 UNK         0.0283 
     31 CB         24.2244  -28.3466  -43.4644 C.3       4 UNK        -0.1875 
     32 C          23.0960  -26.1789  -42.8158 C.2       4 UNK         0.4949 
     33 O          21.9012  -26.1754  -42.5081 O.2       4 UNK        -0.5039 
     34 N          24.0406  -25.4884  -42.1658 N.am      5 UNK        -0.4663 
     35 CA         23.8052  -24.6089  -41.0138 C.3       5 UNK         0.0242 
     36 CB         25.0319  -23.6999  -40.8279 C.3       5 UNK        -0.1982 
     37 C          23.4796  -25.3510  -39.7009 C.2       5 UNK         0.5017 
     38 O          23.0929  -24.7040  -38.7272 O.2       5 UNK        -0.5012 
     39 N          23.6449  -26.6766  -39.6933 N.am      6 UNK        -0.4439 
     40 CA         23.3030  -27.5903  -38.6093 C.3       6 UNK         0.0297 
     41 CB         24.5980  -28.0761  -37.9360 C.3       6 UNK        -0.2006 
     42 C          22.5226  -28.7664  -39.2074 C.2       6 UNK         0.4892 
     43 O          22.5364  -28.9526  -40.4275 O.2       6 UNK        -0.5089 
     44 N          21.8750  -29.5557  -38.3415 N.am      7 UNK        -0.4243 
     45 CA         21.0603  -30.7250  -38.6912 C.3       7 UNK         0.0196 
     46 CB         20.1264  -31.0549  -37.5121 C.3       7 UNK        -0.2007 
     47 C          21.8909  -31.9402  -39.1514 C.2       7 UNK         0.5020 
     48 O          21.7561  -33.0330  -38.5988 O.2       7 UNK        -0.5147 
     49 N          22.7189  -31.7440  -40.1825 N.am      8 UNK        -0.4734 
     50 CA         23.5637  -32.7504  -40.8334 C.3       8 UNK         0.0238 
     51 CB         24.7260  -32.0254  -41.5384 C.3       8 UNK        -0.1912 
     52 C          22.7644  -33.6575  -41.7937 C.2       8 UNK         0.5038 
     53 O          23.1970  -33.8915  -42.9240 O.2       8 UNK        -0.5046 
     54 N          21.5982  -34.1244  -41.3362 N.am      9 UNK        -0.4200 
     55 CA         20.6633  -34.9698  -42.0847 C.3       9 UNK         0.0839 
     56 C          21.1369  -36.4445  -42.2074 C.2       9 UNK         0.5513 
     57 N          20.5630  -37.1986  -43.1343 N.am      9 UNK        -0.7519 
     58 O          21.9895  -36.9204  -41.4597 O.2       9 UNK        -0.4960 
     59 C59        19.2231  -34.8509  -41.5061 C.3       10 UNK        -0.0876 
     60 S60        17.9742  -34.7064  -42.8292 S.3       10 UNK        -0.2414 
     61 C61        17.3444  -33.0072  -42.5837 C.3       10 UNK         0.0169 
     62 H62        20.8905  -22.4773  -40.9918 H         1 UNK         0.0903 
     63 H63        19.6718  -22.7277  -39.7382 H         1 UNK         0.0903 
     64 H64        20.7235  -24.0576  -40.2088 H         1 UNK         0.0903 
     65 H65        20.2772  -25.2353  -42.1685 H         1 UNK         0.3096 
     66 H66        17.5529  -24.8507  -43.3088 H         1 UNK         0.1121 
     67 H67        17.8292  -27.2179  -44.0837 H         1 UNK         0.0849 
     68 H68        19.4339  -27.2686  -43.4091 H         1 UNK         0.0849 
     69 H69        19.9799  -27.9272  -41.0068 H         1 UNK         0.0865 
     70 H70        18.7961  -28.7785  -40.0467 H         1 UNK         0.0865 
     71 H71        17.4516  -30.6961  -41.1653 H         1 UNK         0.1346 
     72 H72        19.5421  -32.8151  -44.2584 H         1 UNK         0.1412 
     73 H73        21.0296  -29.0542  -42.8486 H         1 UNK         0.1426 
     74 H74        22.3453  -30.3288  -44.3997 H         1 UNK         0.0716 
     75 H75        22.0101  -32.0260  -44.5944 H         1 UNK         0.0716 
     76 H76        19.3712  -29.1084  -46.8566 H         1 UNK         0.0695 
     77 H77        20.0053  -28.8185  -45.2772 H         1 UNK         0.0695 
     78 H78        21.4417  -28.1846  -47.9174 H         1 UNK         0.0983 
     79 H79        20.8673  -25.9700  -46.1851 H         1 UNK         0.3095 
     80 H80        19.5605  -24.1625  -47.3071 H         1 UNK         0.0454 
     81 H81        16.8205  -25.3232  -48.0461 H         1 UNK         0.0851 
     82 H82        17.1953  -23.6135  -47.8306 H         1 UNK         0.0851 
     83 H83        17.9266  -24.5143  -49.1470 H         1 UNK         0.0851 
     84 H84        17.3899  -25.2510  -45.6580 H         1 UNK         0.2976 
     85 H85        21.5595  -27.1056  -44.4418 H         1 UNK         0.3116 
     86 H86        24.3258  -26.4715  -44.5470 H         1 UNK         0.0646 
     87 H87        23.5188  -28.9346  -42.8783 H         1 UNK         0.0847 
     88 H88        24.5835  -28.9721  -44.2815 H         1 UNK         0.0847 
     89 H89        25.0817  -28.1391  -42.8233 H         1 UNK         0.0847 
     90 H90        24.9975  -25.5616  -42.4827 H         1 UNK         0.3040 
     91 H91        22.9473  -23.9758  -41.2459 H         1 UNK         0.1015 
     92 H92        25.9295  -24.2753  -40.5981 H         1 UNK         0.0786 
     93 H93        24.8779  -22.9961  -40.0086 H         1 UNK         0.0786 
     94 H94        25.2291  -23.1100  -41.7234 H         1 UNK         0.0786 
     95 H95        23.8532  -27.1329  -40.5715 H         1 UNK         0.3172 
     96 H96        22.6666  -27.0933  -37.8741 H         1 UNK         0.0595 
     97 H97        24.3845  -28.7478  -37.1037 H         1 UNK         0.0839 
     98 H98        25.1717  -27.2400  -37.5355 H         1 UNK         0.0839 
     99 H99        25.2386  -28.6156  -38.6351 H         1 UNK         0.0839 
    100 H100       21.9526  -29.3496  -37.3558 H         1 UNK         0.2998 
    101 H101       20.4300  -30.4578  -39.5384 H         1 UNK         0.0822 
    102 H102       19.4629  -31.8852  -37.7585 H         1 UNK         0.0787 
    103 H103       20.6870  -31.3377  -36.6203 H         1 UNK         0.0787 
    104 H104       19.4933  -30.2048  -37.2571 H         1 UNK         0.0787 
    105 H105       22.7423  -30.8036  -40.5715 H         1 UNK         0.3055 
    106 H106       23.9878  -33.3998  -40.0643 H         1 UNK         0.1106 
    107 H107       25.2910  -31.4073  -40.8405 H         1 UNK         0.0828 
    108 H108       25.4259  -32.7382  -41.9766 H         1 UNK         0.0828 
    109 H109       24.3682  -31.3814  -42.3428 H         1 UNK         0.0828 
    110 H110       21.3630  -33.9232  -40.3713 H         1 UNK         0.2931 
    111 H111       20.6653  -34.5716  -43.1009 H         1 UNK         0.0412 
    112 H112       19.8417  -36.8212  -43.7303 H         1 UNK         0.3472 
    113 H113       20.8420  -38.1628  -43.2299 H         1 UNK         0.3472 
    114 H114       18.9694  -35.7002  -40.8685 H         1 UNK         0.0970 
    115 H115       19.1340  -33.9767  -40.8589 H         1 UNK         0.0970 
    116 H116       16.8430  -32.9704  -41.6152 H         1 UNK         0.0612 
    117 H117       16.5784  -32.8114  -43.3347 H         1 UNK         0.0612 
@<TRIPOS>BOND
     1    1    2 1    
     2    1   62 1    
     3    1   63 1    
     4    1   64 1    
     5    2    3 2    
     6    2    4 am   BACKBONE|DICT|INTERRES
     7    4    5 1    
     8    4   65 1    
     9    5    6 1    
    10    5   25 1    
    11    5   66 1    
    12    6    7 1    
    13    6   67 1    
    14    6   68 1    
    15    7    8 1    
    16    8    9 1    
    17    8   69 1    
    18    8   70 1    
    19    9   10 ar   
    20    9   14 ar   
    21   10   11 ar   
    22   10   71 1    
    23   11   12 ar   
    24   11   61 1    
    25   12   13 ar   
    26   12   72 1    
    27   13   14 ar   
    28   13   15 1    
    29   14   73 1    
    30   15   16 1    
    31   15   74 1    
    32   15   75 1    
    33   16   17 1    
    34   17   18 1    
    35   17   76 1    
    36   17   77 1    
    37   18   19 1    
    38   18   27 1    
    39   18   78 1    
    40   19   20 am   BACKBONE|DICT|INTERRES
    41   19   79 1    
    42   20   21 2    
    43   20   22 1    
    44   22   23 1    
    45   22   24 1    
    46   22   80 1    
    47   23   81 1    
    48   23   82 1    
    49   23   83 1    
    50   24   25 am   BACKBONE|DICT|INTERRES
    51   24   84 1    
    52   25   26 2    
    53   27   28 2    
    54   27   29 am   BACKBONE|DICT|INTERRES
    55   29   30 1    
    56   29   85 1    
    57   30   31 1    
    58   30   32 1    
    59   30   86 1    
    60   31   87 1    
    61   31   88 1    
    62   31   89 1    
    63   32   33 2    
    64   32   34 am   BACKBONE|DICT|INTERRES
    65   34   35 1    
    66   34   90 1    
    67   35   36 1    
    68   35   37 1    
    69   35   91 1    
    70   36   92 1    
    71   36   93 1    
    72   36   94 1    
    73   37   38 2    
    74   37   39 am   BACKBONE|DICT|INTERRES
    75   39   40 1    
    76   39   95 1    
    77   40   41 1    
    78   40   42 1    
    79   40   96 1    
    80   41   97 1    
    81   41   98 1    
    82   41   99 1    
    83   42   43 2    
    84   42   44 am   BACKBONE|DICT|INTERRES
    85   44   45 1    
    86   44  100 1    
    87   45   46 1    
    88   45   47 1    
    89   45  101 1    
    90   46  102 1    
    91   46  103 1    
    92   46  104 1    
    93   47   48 2    
    94   47   49 am   BACKBONE|DICT|INTERRES
    95   49   50 1    
    96   49  105 1    
    97   50   51 1    
    98   50   52 1    
    99   50  106 1    
   100   51  107 1    
   101   51  108 1    
   102   51  109 1    
   103   52   53 2    
   104   52   54 am   BACKBONE|DICT|INTERRES
   105   54   55 1    
   106   54  110 1    
   107   55   56 1    
   108   55   59 1    
   109   55  111 1    
   110   56   57 am   BACKBONE|DICT|INTERRES
   111   56   58 2    
   112   57  112 1    
   113   57  113 1    
   114   59   60 1    
   115   59  114 1    
   116   59  115 1    
   117   60   61 1    
   118   61  116 1    
   119   61  117 1    
@<TRIPOS>SUBSTRUCTURE
     1 UNK         1 GROUP             0       ****    0 ROOT    
