@<TRIPOS>MOLECULE
3R8
117   119    1
SMALL
USER_CHARGES


@<TRIPOS>ATOM
      1 CA         14.0919  -23.2821  -42.8811 C.3       0 UNK        -0.2013 
      2 C          14.8781  -23.6525  -44.1296 C.2       0 UNK         0.4866 
      3 O          15.2638  -22.7695  -44.8958 O.2       0 UNK        -0.5176 
      4 N          15.1223  -24.9523  -44.3399 N.am      1 UNK        -0.4884 
      5 CA         15.8670  -25.4951  -45.4851 C.3       1 UNK         0.0853 
      6 C6         15.4447  -26.9524  -45.8009 C.3       10 UNK        -0.0849 
      7 S7         15.6430  -28.1184  -44.4058 S.3       10 UNK        -0.2776 
      8 C8         15.6419  -29.7158  -45.2827 C.3       10 UNK         0.0316 
      9 C9         17.0447  -30.2879  -45.4457 C.ar      10 UNK        -0.0863 
     10 C10        17.4360  -31.4044  -44.6973 C.ar      10 UNK        -0.1009 
     11 C11        18.7057  -31.9645  -44.8675 C.ar      10 UNK        -0.0712 
     12 C12        19.5910  -31.3927  -45.7847 C.ar      10 UNK        -0.0894 
     13 C13        19.2219  -30.2648  -46.5228 C.ar      10 UNK        -0.0745 
     14 C14        17.9432  -29.7240  -46.3587 C.ar      10 UNK        -0.0972 
     15 C15        20.2168  -29.6256  -47.4829 C.3       10 UNK         0.0209 
     16 S16        20.9026  -28.0634  -46.8382 S.3       10 UNK        -0.2568 
     17 C17        21.5223  -28.5763  -45.1997 C.3       10 UNK        -0.0983 
     18 CA         22.1302  -27.4119  -44.3741 C.3       3 UNK         0.0876 
     19 N          21.2503  -26.2346  -44.2466 N.am      3 UNK        -0.4424 
     20 C          20.0034  -26.1725  -43.7555 C.2       2 UNK         0.4918 
     21 O          19.4253  -27.1292  -43.2366 O.2       2 UNK        -0.4875 
     22 CA         19.2918  -24.8049  -43.7806 C.3       2 UNK         0.0481 
     23 CB         20.0033  -23.7206  -44.6234 C.3       2 UNK        -0.1831 
     24 N          17.8846  -24.9457  -44.1688 N.am      2 UNK        -0.4498 
     25 C          17.4010  -25.3484  -45.3555 C.2       1 UNK         0.5027 
     26 O          18.1041  -25.5906  -46.3375 O.2       1 UNK        -0.4969 
     27 C          22.6509  -27.9516  -43.0250 C.2       3 UNK         0.5005 
     28 O          23.8306  -28.2955  -42.9263 O.2       3 UNK        -0.5279 
     29 N          21.7723  -28.0207  -42.0155 N.am      4 UNK        -0.4463 
     30 CA         21.9589  -28.6226  -40.6916 C.3       4 UNK         0.0283 
     31 CB         20.6975  -28.3788  -39.8507 C.3       4 UNK        -0.1875 
     32 C          23.2038  -28.1680  -39.9137 C.2       4 UNK         0.4949 
     33 O          23.7239  -28.9509  -39.1210 O.2       4 UNK        -0.5039 
     34 N          23.6872  -26.9469  -40.1785 N.am      5 UNK        -0.4663 
     35 CA         24.9352  -26.4041  -39.6323 C.3       5 UNK         0.0242 
     36 CB         25.0727  -24.9339  -40.0595 C.3       5 UNK        -0.1982 
     37 C          26.1925  -27.2014  -40.0343 C.2       5 UNK         0.5017 
     38 O          27.1733  -27.1778  -39.2897 O.2       5 UNK        -0.5012 
     39 N          26.1388  -27.8895  -41.1834 N.am      6 UNK        -0.4439 
     40 CA         27.1891  -28.7791  -41.6799 C.3       6 UNK         0.0297 
     41 CB         27.6429  -28.3004  -43.0690 C.3       6 UNK        -0.2006 
     42 C          26.7069  -30.2363  -41.7490 C.2       6 UNK         0.4892 
     43 O          27.4735  -31.1384  -41.4106 O.2       6 UNK        -0.5089 
     44 N          25.4627  -30.4481  -42.2007 N.am      7 UNK        -0.4243 
     45 CA         24.8911  -31.7696  -42.4706 C.3       7 UNK         0.0196 
     46 CB         23.7711  -31.6150  -43.5123 C.3       7 UNK        -0.2007 
     47 C          24.3698  -32.5062  -41.2235 C.2       7 UNK         0.5020 
     48 O          24.1566  -33.7157  -41.3031 O.2       7 UNK        -0.5147 
     49 N          24.1528  -31.7836  -40.1124 N.am      8 UNK        -0.4734 
     50 CA         23.6135  -32.2673  -38.8290 C.3       8 UNK         0.0238 
     51 CB         24.5688  -33.2895  -38.1753 C.3       8 UNK        -0.1912 
     52 C          22.1562  -32.7752  -38.9041 C.2       8 UNK         0.5038 
     53 O          21.7433  -33.5708  -38.0581 O.2       8 UNK        -0.5046 
     54 N          21.4060  -32.3040  -39.9080 N.am      9 UNK        -0.4200 
     55 CA         19.9853  -32.6004  -40.1449 C.3       9 UNK         0.0839 
     56 C          19.0562  -32.0932  -39.0082 C.2       9 UNK         0.5513 
     57 N          17.9343  -32.7634  -38.7844 N.am      9 UNK        -0.7519 
     58 O          19.3185  -31.0836  -38.3590 O.2       9 UNK        -0.4960 
     59 C59        19.5256  -32.0499  -41.5207 C.3       10 UNK        -0.0876 
     60 S60        20.4439  -32.8307  -42.8894 S.3       10 UNK        -0.2414 
     61 C61        19.1231  -33.2011  -44.0846 C.3       10 UNK         0.0169 
     62 H62        13.1770  -22.7580  -43.1562 H         1 UNK         0.0903 
     63 H63        13.8166  -24.1598  -42.2965 H         1 UNK         0.0903 
     64 H64        14.6839  -22.6235  -42.2461 H         1 UNK         0.0903 
     65 H65        14.7869  -25.6431  -43.6815 H         1 UNK         0.3096 
     66 H66        15.5992  -24.8978  -46.3602 H         1 UNK         0.1121 
     67 H67        14.3936  -26.9652  -46.0939 H         1 UNK         0.0849 
     68 H68        15.9892  -27.3209  -46.6712 H         1 UNK         0.0849 
     69 H69        15.0143  -30.4108  -44.7227 H         1 UNK         0.0865 
     70 H70        15.1692  -29.6149  -46.2608 H         1 UNK         0.0865 
     71 H71        16.7471  -31.8472  -43.9910 H         1 UNK         0.1346 
     72 H72        20.5772  -31.8194  -45.9083 H         1 UNK         0.1412 
     73 H73        17.6596  -28.8534  -46.9326 H         1 UNK         0.1426 
     74 H74        21.0390  -30.3099  -47.6975 H         1 UNK         0.0716 
     75 H75        19.7260  -29.4293  -48.4371 H         1 UNK         0.0716 
     76 H76        20.7006  -29.0318  -44.6449 H         1 UNK         0.0695 
     77 H77        22.2623  -29.3644  -45.3523 H         1 UNK         0.0695 
     78 H78        23.0098  -27.0577  -44.9145 H         1 UNK         0.0983 
     79 H79        21.6377  -25.3813  -44.6222 H         1 UNK         0.3095 
     80 H80        19.2805  -24.4556  -42.7474 H         1 UNK         0.0454 
     81 H81        20.1430  -24.0279  -45.6605 H         1 UNK         0.0851 
     82 H82        19.4290  -22.7941  -44.6313 H         1 UNK         0.0851 
     83 H83        20.9838  -23.4777  -44.2125 H         1 UNK         0.0851 
     84 H84        17.2113  -24.8081  -43.4288 H         1 UNK         0.2976 
     85 H85        20.8241  -27.7259  -42.2434 H         1 UNK         0.3116 
     86 H86        22.0602  -29.6959  -40.8525 H         1 UNK         0.0646 
     87 H87        20.5109  -27.3143  -39.7037 H         1 UNK         0.0847 
     88 H88        19.8133  -28.8116  -40.3184 H         1 UNK         0.0847 
     89 H89        20.7919  -28.8318  -38.8626 H         1 UNK         0.0847 
     90 H90        23.1931  -26.3755  -40.8483 H         1 UNK         0.3040 
     91 H91        24.8646  -26.4427  -38.5429 H         1 UNK         0.1015 
     92 H92        25.1253  -24.8319  -41.1443 H         1 UNK         0.0786 
     93 H93        25.9800  -24.4908  -39.6463 H         1 UNK         0.0786 
     94 H94        24.2328  -24.3363  -39.7047 H         1 UNK         0.0786 
     95 H95        25.2793  -27.8542  -41.7251 H         1 UNK         0.3172 
     96 H96        28.0565  -28.7557  -41.0170 H         1 UNK         0.0595 
     97 H97        28.4207  -28.9505  -43.4719 H         1 UNK         0.0839 
     98 H98        28.0552  -27.2924  -43.0233 H         1 UNK         0.0839 
     99 H99        26.8194  -28.2924  -43.7846 H         1 UNK         0.0839 
    100 H100       24.8958  -29.6498  -42.4811 H         1 UNK         0.2998 
    101 H101       25.6703  -32.3967  -42.9097 H         1 UNK         0.0822 
    102 H102       23.3723  -32.5878  -43.8029 H         1 UNK         0.0787 
    103 H103       22.9401  -31.0233  -43.1276 H         1 UNK         0.0787 
    104 H104       24.1345  -31.1322  -44.4196 H         1 UNK         0.0787 
    105 H105       24.3610  -30.7920  -40.1372 H         1 UNK         0.3055 
    106 H106       23.5790  -31.3985  -38.1701 H         1 UNK         0.1106 
    107 H107       25.5868  -32.9037  -38.1227 H         1 UNK         0.0828 
    108 H108       24.2586  -33.5185  -37.1551 H         1 UNK         0.0828 
    109 H109       24.5939  -34.2314  -38.7237 H         1 UNK         0.0828 
    110 H110       21.8429  -31.6847  -40.5706 H         1 UNK         0.2931 
    111 H111       19.8965  -33.6887  -40.1706 H         1 UNK         0.0412 
    112 H112       17.3095  -32.4434  -38.0605 H         1 UNK         0.3472 
    113 H113       17.7048  -33.5908  -39.3134 H         1 UNK         0.3472 
    114 H114       18.4578  -32.2248  -41.6642 H         1 UNK         0.0970 
    115 H115       19.6640  -30.9689  -41.5783 H         1 UNK         0.0970 
    116 H116       19.4907  -33.9527  -44.7846 H         1 UNK         0.0612 
    117 H117       18.2734  -33.6541  -43.5716 H         1 UNK         0.0612 
@<TRIPOS>BOND
     1    1    2 1    
     2    1   62 1    
     3    1   63 1    
     4    1   64 1    
     5    2    3 2    
     6    2    4 am   BACKBONE|DICT|INTERRES
     7    4    5 1    
     8    4   65 1    
     9    5    6 1    
    10    5   25 1    
    11    5   66 1    
    12    6    7 1    
    13    6   67 1    
    14    6   68 1    
    15    7    8 1    
    16    8    9 1    
    17    8   69 1    
    18    8   70 1    
    19    9   10 ar   
    20    9   14 ar   
    21   10   11 ar   
    22   10   71 1    
    23   11   12 ar   
    24   11   61 1    
    25   12   13 ar   
    26   12   72 1    
    27   13   14 ar   
    28   13   15 1    
    29   14   73 1    
    30   15   16 1    
    31   15   74 1    
    32   15   75 1    
    33   16   17 1    
    34   17   18 1    
    35   17   76 1    
    36   17   77 1    
    37   18   19 1    
    38   18   27 1    
    39   18   78 1    
    40   19   20 am   BACKBONE|DICT|INTERRES
    41   19   79 1    
    42   20   21 2    
    43   20   22 1    
    44   22   23 1    
    45   22   24 1    
    46   22   80 1    
    47   23   81 1    
    48   23   82 1    
    49   23   83 1    
    50   24   25 am   BACKBONE|DICT|INTERRES
    51   24   84 1    
    52   25   26 2    
    53   27   28 2    
    54   27   29 am   BACKBONE|DICT|INTERRES
    55   29   30 1    
    56   29   85 1    
    57   30   31 1    
    58   30   32 1    
    59   30   86 1    
    60   31   87 1    
    61   31   88 1    
    62   31   89 1    
    63   32   33 2    
    64   32   34 am   BACKBONE|DICT|INTERRES
    65   34   35 1    
    66   34   90 1    
    67   35   36 1    
    68   35   37 1    
    69   35   91 1    
    70   36   92 1    
    71   36   93 1    
    72   36   94 1    
    73   37   38 2    
    74   37   39 am   BACKBONE|DICT|INTERRES
    75   39   40 1    
    76   39   95 1    
    77   40   41 1    
    78   40   42 1    
    79   40   96 1    
    80   41   97 1    
    81   41   98 1    
    82   41   99 1    
    83   42   43 2    
    84   42   44 am   BACKBONE|DICT|INTERRES
    85   44   45 1    
    86   44  100 1    
    87   45   46 1    
    88   45   47 1    
    89   45  101 1    
    90   46  102 1    
    91   46  103 1    
    92   46  104 1    
    93   47   48 2    
    94   47   49 am   BACKBONE|DICT|INTERRES
    95   49   50 1    
    96   49  105 1    
    97   50   51 1    
    98   50   52 1    
    99   50  106 1    
   100   51  107 1    
   101   51  108 1    
   102   51  109 1    
   103   52   53 2    
   104   52   54 am   BACKBONE|DICT|INTERRES
   105   54   55 1    
   106   54  110 1    
   107   55   56 1    
   108   55   59 1    
   109   55  111 1    
   110   56   57 am   BACKBONE|DICT|INTERRES
   111   56   58 2    
   112   57  112 1    
   113   57  113 1    
   114   59   60 1    
   115   59  114 1    
   116   59  115 1    
   117   60   61 1    
   118   61  116 1    
   119   61  117 1    
@<TRIPOS>SUBSTRUCTURE
     1 UNK         1 GROUP             0       ****    0 ROOT    
