@<TRIPOS>MOLECULE
3R8
117   119    1
SMALL
USER_CHARGES


@<TRIPOS>ATOM
      1 CA         16.6702  -22.7434  -42.1226 C.3       0 UNK        -0.2013 
      2 C          16.8569  -23.3938  -43.4849 C.2       0 UNK         0.4866 
      3 O          16.7362  -22.7211  -44.5085 O.2       0 UNK        -0.5176 
      4 N          17.1599  -24.6981  -43.5070 N.am      1 UNK        -0.4884 
      5 CA         17.3160  -25.5082  -44.7255 C.3       1 UNK         0.0853 
      6 C6         17.1381  -27.0247  -44.4490 C.3       10 UNK        -0.0849 
      7 S7         15.7467  -27.4805  -43.3528 S.3       10 UNK        -0.2776 
      8 C8         15.6288  -29.2882  -43.6083 C.3       10 UNK         0.0316 
      9 C9         16.9852  -29.9772  -43.5215 C.ar      10 UNK        -0.0863 
     10 C10        17.5177  -30.3722  -42.2898 C.ar      10 UNK        -0.1009 
     11 C11        18.7956  -30.9389  -42.2216 C.ar      10 UNK        -0.0712 
     12 C12        19.5470  -31.0907  -43.3924 C.ar      10 UNK        -0.0894 
     13 C13        19.0160  -30.7155  -44.6279 C.ar      10 UNK        -0.0745 
     14 C14        17.7261  -30.1869  -44.6871 C.ar      10 UNK        -0.0972 
     15 C15        19.8214  -30.8638  -45.9080 C.3       10 UNK         0.0209 
     16 S16        20.3179  -29.2387  -46.5671 S.3       10 UNK        -0.2568 
     17 C17        22.0163  -29.0272  -45.9303 C.3       10 UNK        -0.0983 
     18 CA         22.2026  -27.8953  -44.8886 C.3       3 UNK         0.0876 
     19 N          21.5654  -26.6327  -45.2955 N.am      3 UNK        -0.4424 
     20 C          21.8630  -25.4300  -44.7856 C.2       2 UNK         0.4918 
     21 O          22.7428  -25.2564  -43.9433 O.2       2 UNK        -0.4875 
     22 CA         20.9741  -24.2443  -45.1932 C.3       2 UNK         0.0481 
     23 CB         21.1870  -23.8325  -46.6635 C.3       2 UNK        -0.1831 
     24 N          19.5617  -24.4718  -44.8531 N.am      2 UNK        -0.4498 
     25 C          18.6718  -25.2870  -45.4415 C.2       1 UNK         0.5027 
     26 O          18.9139  -25.9187  -46.4700 O.2       1 UNK        -0.4969 
     27 C          21.8472  -28.3287  -43.4459 C.2       3 UNK         0.5005 
     28 O          22.5342  -29.1838  -42.8808 O.2       3 UNK        -0.5279 
     29 N          20.8365  -27.6825  -42.8449 N.am      4 UNK        -0.4463 
     30 CA         20.5115  -27.7669  -41.4211 C.3       4 UNK         0.0283 
     31 CB         19.1345  -27.1386  -41.1596 C.3       4 UNK        -0.1875 
     32 C          21.5736  -27.1195  -40.5176 C.2       4 UNK         0.4949 
     33 O          21.7683  -27.5967  -39.4013 O.2       4 UNK        -0.5039 
     34 N          22.2682  -26.0802  -41.0092 N.am      5 UNK        -0.4663 
     35 CA         23.3732  -25.4295  -40.2930 C.3       5 UNK         0.0242 
     36 CB         23.6666  -24.0569  -40.9191 C.3       5 UNK        -0.1982 
     37 C          24.6403  -26.3010  -40.2692 C.2       5 UNK         0.5017 
     38 O          25.3933  -26.2524  -39.2968 O.2       5 UNK        -0.5012 
     39 N          24.8247  -27.1099  -41.3222 N.am      6 UNK        -0.4439 
     40 CA         25.8448  -28.1578  -41.4076 C.3       6 UNK         0.0297 
     41 CB         26.0866  -28.4983  -42.8881 C.3       6 UNK        -0.2006 
     42 C          25.4633  -29.4287  -40.6220 C.2       6 UNK         0.4892 
     43 O          26.3335  -30.2700  -40.3966 O.2       6 UNK        -0.5089 
     44 N          24.1799  -29.5494  -40.2433 N.am      7 UNK        -0.4243 
     45 CA         23.5342  -30.6858  -39.5774 C.3       7 UNK         0.0196 
     46 CB         24.0755  -30.8655  -38.1438 C.3       7 UNK        -0.2007 
     47 C          23.6029  -31.9753  -40.4166 C.2       7 UNK         0.5020 
     48 O          23.7807  -33.0634  -39.8660 O.2       7 UNK        -0.5147 
     49 N          23.4546  -31.8351  -41.7431 N.am      8 UNK        -0.4734 
     50 CA         23.6380  -32.9165  -42.7207 C.3       8 UNK         0.0238 
     51 CB         23.6231  -32.3206  -44.1357 C.3       8 UNK        -0.1912 
     52 C          22.6187  -34.0656  -42.6093 C.2       8 UNK         0.5038 
     53 O          22.8992  -35.1647  -43.0888 O.2       8 UNK        -0.5046 
     54 N          21.4692  -33.7940  -41.9808 N.am      9 UNK        -0.4200 
     55 CA         20.4292  -34.7758  -41.6541 C.3       9 UNK         0.0839 
     56 C          20.7342  -35.6433  -40.3964 C.2       9 UNK         0.5513 
     57 N          21.7948  -35.3811  -39.6393 N.am      9 UNK        -0.7519 
     58 O          20.0005  -36.5867  -40.1128 O.2       9 UNK        -0.4960 
     59 C59        19.0225  -34.1201  -41.6191 C.3       10 UNK        -0.0876 
     60 S60        18.7368  -32.9328  -40.2540 S.3       10 UNK        -0.2414 
     61 C61        19.3868  -31.3490  -40.8804 C.3       10 UNK         0.0169 
     62 H62        16.8163  -23.4523  -41.3078 H         1 UNK         0.0903 
     63 H63        17.3817  -21.9281  -41.9945 H         1 UNK         0.0903 
     64 H64        15.6641  -22.3336  -42.0382 H         1 UNK         0.0903 
     65 H65        17.1970  -25.2134  -42.6389 H         1 UNK         0.3096 
     66 H66        16.5380  -25.2047  -45.4300 H         1 UNK         0.1121 
     67 H67        17.0012  -27.5439  -45.3993 H         1 UNK         0.0849 
     68 H68        18.0460  -27.4394  -44.0082 H         1 UNK         0.0849 
     69 H69        14.9502  -29.7096  -42.8652 H         1 UNK         0.0865 
     70 H70        15.1701  -29.4811  -44.5795 H         1 UNK         0.0865 
     71 H71        16.9477  -30.2213  -41.3832 H         1 UNK         0.1346 
     72 H72        20.5469  -31.4948  -43.3431 H         1 UNK         0.1412 
     73 H73        17.3196  -29.8915  -45.6448 H         1 UNK         0.1426 
     74 H74        20.6906  -31.5052  -45.7615 H         1 UNK         0.0716 
     75 H75        19.2035  -31.3645  -46.6547 H         1 UNK         0.0716 
     76 H76        22.4030  -29.9729  -45.5534 H         1 UNK         0.0695 
     77 H77        22.6383  -28.8004  -46.7975 H         1 UNK         0.0695 
     78 H78        23.2764  -27.6975  -44.8511 H         1 UNK         0.0983 
     79 H79        20.7977  -26.7057  -45.9561 H         1 UNK         0.3095 
     80 H80        21.2830  -23.3960  -44.5801 H         1 UNK         0.0454 
     81 H81        20.9722  -24.6417  -47.3612 H         1 UNK         0.0851 
     82 H82        20.5578  -22.9839  -46.9313 H         1 UNK         0.0851 
     83 H83        22.2221  -23.5333  -46.8324 H         1 UNK         0.0851 
     84 H84        19.2448  -24.0047  -44.0147 H         1 UNK         0.2976 
     85 H85        20.3229  -27.0114  -43.3933 H         1 UNK         0.3116 
     86 H86        20.4655  -28.8213  -41.1520 H         1 UNK         0.0646 
     87 H87        18.8865  -27.1730  -40.0977 H         1 UNK         0.0847 
     88 H88        18.3471  -27.6784  -41.6830 H         1 UNK         0.0847 
     89 H89        19.0988  -26.0936  -41.4681 H         1 UNK         0.0847 
     90 H90        22.0866  -25.7550  -41.9510 H         1 UNK         0.3040 
     91 H91        23.0639  -25.2700  -39.2571 H         1 UNK         0.1015 
     92 H92        22.7752  -23.4299  -40.9409 H         1 UNK         0.0786 
     93 H93        24.0414  -24.1454  -41.9391 H         1 UNK         0.0786 
     94 H94        24.4237  -23.5231  -40.3429 H         1 UNK         0.0786 
     95 H95        24.1578  -27.0598  -42.0786 H         1 UNK         0.3172 
     96 H96        26.7773  -27.7753  -40.9872 H         1 UNK         0.0595 
     97 H97        26.8847  -29.2348  -42.9919 H         1 UNK         0.0839 
     98 H98        26.3858  -27.6174  -43.4563 H         1 UNK         0.0839 
     99 H99        25.1976  -28.9184  -43.3593 H         1 UNK         0.0839 
    100 H100       23.5563  -28.7950  -40.4940 H         1 UNK         0.2998 
    101 H101       22.4763  -30.4308  -39.4993 H         1 UNK         0.0822 
    102 H102       24.0009  -29.9390  -37.5745 H         1 UNK         0.0787 
    103 H103       23.5071  -31.6238  -37.6037 H         1 UNK         0.0787 
    104 H104       25.1198  -31.1792  -38.1408 H         1 UNK         0.0787 
    105 H105       23.2793  -30.9050  -42.1156 H         1 UNK         0.3055 
    106 H106       24.6247  -33.3508  -42.5440 H         1 UNK         0.1106 
    107 H107       23.8483  -33.0821  -44.8837 H         1 UNK         0.0828 
    108 H108       22.6467  -31.9061  -44.3783 H         1 UNK         0.0828 
    109 H109       24.3642  -31.5286  -44.2454 H         1 UNK         0.0828 
    110 H110       21.3522  -32.8772  -41.5809 H         1 UNK         0.2931 
    111 H111       20.4010  -35.4885  -42.4807 H         1 UNK         0.0412 
    112 H112       21.9764  -35.9595  -38.8345 H         1 UNK         0.3472 
    113 H113       22.4168  -34.6093  -39.8514 H         1 UNK         0.3472 
    114 H114       18.2646  -34.9003  -41.5286 H         1 UNK         0.0970 
    115 H115       18.8093  -33.6433  -42.5755 H         1 UNK         0.0970 
    116 H116       20.4738  -31.3975  -40.9383 H         1 UNK         0.0612 
    117 H117       19.1645  -30.5779  -40.1414 H         1 UNK         0.0612 
@<TRIPOS>BOND
     1    1    2 1    
     2    1   62 1    
     3    1   63 1    
     4    1   64 1    
     5    2    3 2    
     6    2    4 am   BACKBONE|DICT|INTERRES
     7    4    5 1    
     8    4   65 1    
     9    5    6 1    
    10    5   25 1    
    11    5   66 1    
    12    6    7 1    
    13    6   67 1    
    14    6   68 1    
    15    7    8 1    
    16    8    9 1    
    17    8   69 1    
    18    8   70 1    
    19    9   10 ar   
    20    9   14 ar   
    21   10   11 ar   
    22   10   71 1    
    23   11   12 ar   
    24   11   61 1    
    25   12   13 ar   
    26   12   72 1    
    27   13   14 ar   
    28   13   15 1    
    29   14   73 1    
    30   15   16 1    
    31   15   74 1    
    32   15   75 1    
    33   16   17 1    
    34   17   18 1    
    35   17   76 1    
    36   17   77 1    
    37   18   19 1    
    38   18   27 1    
    39   18   78 1    
    40   19   20 am   BACKBONE|DICT|INTERRES
    41   19   79 1    
    42   20   21 2    
    43   20   22 1    
    44   22   23 1    
    45   22   24 1    
    46   22   80 1    
    47   23   81 1    
    48   23   82 1    
    49   23   83 1    
    50   24   25 am   BACKBONE|DICT|INTERRES
    51   24   84 1    
    52   25   26 2    
    53   27   28 2    
    54   27   29 am   BACKBONE|DICT|INTERRES
    55   29   30 1    
    56   29   85 1    
    57   30   31 1    
    58   30   32 1    
    59   30   86 1    
    60   31   87 1    
    61   31   88 1    
    62   31   89 1    
    63   32   33 2    
    64   32   34 am   BACKBONE|DICT|INTERRES
    65   34   35 1    
    66   34   90 1    
    67   35   36 1    
    68   35   37 1    
    69   35   91 1    
    70   36   92 1    
    71   36   93 1    
    72   36   94 1    
    73   37   38 2    
    74   37   39 am   BACKBONE|DICT|INTERRES
    75   39   40 1    
    76   39   95 1    
    77   40   41 1    
    78   40   42 1    
    79   40   96 1    
    80   41   97 1    
    81   41   98 1    
    82   41   99 1    
    83   42   43 2    
    84   42   44 am   BACKBONE|DICT|INTERRES
    85   44   45 1    
    86   44  100 1    
    87   45   46 1    
    88   45   47 1    
    89   45  101 1    
    90   46  102 1    
    91   46  103 1    
    92   46  104 1    
    93   47   48 2    
    94   47   49 am   BACKBONE|DICT|INTERRES
    95   49   50 1    
    96   49  105 1    
    97   50   51 1    
    98   50   52 1    
    99   50  106 1    
   100   51  107 1    
   101   51  108 1    
   102   51  109 1    
   103   52   53 2    
   104   52   54 am   BACKBONE|DICT|INTERRES
   105   54   55 1    
   106   54  110 1    
   107   55   56 1    
   108   55   59 1    
   109   55  111 1    
   110   56   57 am   BACKBONE|DICT|INTERRES
   111   56   58 2    
   112   57  112 1    
   113   57  113 1    
   114   59   60 1    
   115   59  114 1    
   116   59  115 1    
   117   60   61 1    
   118   61  116 1    
   119   61  117 1    
@<TRIPOS>SUBSTRUCTURE
     1 UNK         1 GROUP             0       ****    0 ROOT    
