@<TRIPOS>MOLECULE
3R8
117   119    1
SMALL
USER_CHARGES


@<TRIPOS>ATOM
      1 CA         24.4136  -23.5837  -46.2800 C.3       0 UNK        -0.2013 
      2 C          23.6942  -24.2570  -45.1211 C.2       0 UNK         0.4866 
      3 O          23.6524  -23.7040  -44.0223 O.2       0 UNK        -0.5176 
      4 N          23.1286  -25.4480  -45.3574 N.am      1 UNK        -0.4884 
      5 CA         22.3716  -26.2281  -44.3708 C.3       1 UNK         0.0853 
      6 C6         22.1563  -27.6924  -44.8352 C.3       10 UNK        -0.0849 
      7 S7         21.3165  -27.8350  -46.4526 S.3       10 UNK        -0.2776 
      8 C8         21.2834  -29.6375  -46.6930 C.3       10 UNK         0.0316 
      9 C9         20.2228  -30.3288  -45.8449 C.ar      10 UNK        -0.0863 
     10 C10        20.5919  -31.3255  -44.9357 C.ar      10 UNK        -0.1009 
     11 C11        19.6195  -32.0281  -44.2178 C.ar      10 UNK        -0.0712 
     12 C12        18.2692  -31.7159  -44.4039 C.ar      10 UNK        -0.0894 
     13 C13        17.8843  -30.7256  -45.3126 C.ar      10 UNK        -0.0745 
     14 C14        18.8666  -30.0307  -46.0259 C.ar      10 UNK        -0.0972 
     15 C15        16.4045  -30.4696  -45.5728 C.3       10 UNK         0.0209 
     16 S16        15.5871  -29.6105  -44.1902 S.3       10 UNK        -0.2568 
     17 C17        16.0780  -27.8778  -44.4774 C.3       10 UNK        -0.0983 
     18 CA         17.3179  -27.4670  -43.6396 C.3       3 UNK         0.0876 
     19 N          18.1522  -26.4822  -44.3326 N.am      3 UNK        -0.4424 
     20 C          17.8813  -25.1833  -44.5281 C.2       2 UNK         0.4918 
     21 O          16.7679  -24.6861  -44.3578 O.2       2 UNK        -0.4875 
     22 CA         19.0619  -24.2681  -44.9313 C.3       2 UNK         0.0481 
     23 CB         19.1305  -23.0247  -44.0212 C.3       2 UNK        -0.1831 
     24 N          20.3820  -24.9203  -44.9794 N.am      2 UNK        -0.4498 
     25 C          21.0258  -25.5773  -43.9996 C.2       1 UNK         0.5027 
     26 O          20.5634  -25.7471  -42.8691 O.2       1 UNK        -0.4969 
     27 C          16.9997  -27.0354  -42.1814 C.2       3 UNK         0.5005 
     28 O          15.9093  -27.3112  -41.6764 O.2       3 UNK        -0.5279 
     29 N          17.9508  -26.3403  -41.5350 N.am      4 UNK        -0.4463 
     30 CA         17.8007  -25.7674  -40.1940 C.3       4 UNK         0.0283 
     31 CB         17.1416  -24.3787  -40.2780 C.3       4 UNK        -0.1875 
     32 C          19.1396  -25.7010  -39.4487 C.2       4 UNK         0.4949 
     33 O          19.2044  -26.1159  -38.2918 O.2       4 UNK        -0.5039 
     34 N          20.1899  -25.2073  -40.1204 N.am      5 UNK        -0.4663 
     35 CA         21.5695  -25.2143  -39.6196 C.3       5 UNK         0.0242 
     36 CB         22.3953  -24.1648  -40.3818 C.3       5 UNK        -0.1982 
     37 C          22.2212  -26.6054  -39.7291 C.2       5 UNK         0.5017 
     38 O          23.1143  -26.9085  -38.9373 O.2       5 UNK        -0.5012 
     39 N          21.7283  -27.4148  -40.6811 N.am      6 UNK        -0.4439 
     40 CA         22.0751  -28.8084  -40.9841 C.3       6 UNK         0.0297 
     41 CB         21.9467  -29.6985  -39.7266 C.3       6 UNK        -0.2006 
     42 C          23.4496  -28.9742  -41.6563 C.2       6 UNK         0.4892 
     43 O          24.2606  -28.0472  -41.6892 O.2       6 UNK        -0.5089 
     44 N          23.6732  -30.1796  -42.1877 N.am      7 UNK        -0.4243 
     45 CA         24.9489  -30.6554  -42.7204 C.3       7 UNK         0.0196 
     46 CB         24.8924  -30.7080  -44.2591 C.3       7 UNK        -0.2007 
     47 C          25.2176  -32.0228  -42.0817 C.2       7 UNK         0.5020 
     48 O          25.2636  -33.0380  -42.7784 O.2       7 UNK        -0.5147 
     49 N          25.2875  -32.0273  -40.7421 N.am      8 UNK        -0.4734 
     50 CA         25.3293  -33.1756  -39.8220 C.3       8 UNK         0.0238 
     51 CB         26.5466  -34.0864  -40.0798 C.3       8 UNK        -0.1912 
     52 C          24.0159  -33.9787  -39.7898 C.2       8 UNK         0.5038 
     53 O          23.4796  -34.2045  -38.7048 O.2       8 UNK        -0.5046 
     54 N          23.5158  -34.3623  -40.9712 N.am      9 UNK        -0.4200 
     55 CA         22.2387  -35.0546  -41.2123 C.3       9 UNK         0.0839 
     56 C          22.1447  -36.4878  -40.6030 C.2       9 UNK         0.5513 
     57 N          23.2558  -37.1445  -40.2915 N.am      9 UNK        -0.7519 
     58 O          21.0546  -37.0306  -40.4400 O.2       9 UNK        -0.4960 
     59 C59        21.0040  -34.1666  -40.8790 C.3       10 UNK        -0.0876 
     60 S60        20.9536  -32.6168  -41.8476 S.3       10 UNK        -0.2414 
     61 C61        20.0173  -33.1768  -43.3017 C.3       10 UNK         0.0169 
     62 H62        25.4605  -23.4188  -46.0263 H         1 UNK         0.0903 
     63 H63        24.3756  -24.1841  -47.1887 H         1 UNK         0.0903 
     64 H64        23.9583  -22.6168  -46.4929 H         1 UNK         0.0903 
     65 H65        23.1938  -25.8615  -46.2778 H         1 UNK         0.3096 
     66 H66        22.9633  -26.2535  -43.4523 H         1 UNK         0.1121 
     67 H67        23.1242  -28.1861  -44.9120 H         1 UNK         0.0849 
     68 H68        21.5927  -28.2602  -44.0924 H         1 UNK         0.0849 
     69 H69        21.0752  -29.8440  -47.7437 H         1 UNK         0.0865 
     70 H70        22.2761  -30.0458  -46.4962 H         1 UNK         0.0865 
     71 H71        21.6341  -31.5829  -44.8070 H         1 UNK         0.1346 
     72 H72        17.5093  -32.2665  -43.8660 H         1 UNK         0.1412 
     73 H73        18.5773  -29.2769  -46.7459 H         1 UNK         0.1426 
     74 H74        15.9052  -31.4277  -45.7245 H         1 UNK         0.0716 
     75 H75        16.2589  -29.9096  -46.4978 H         1 UNK         0.0716 
     76 H76        15.2284  -27.2233  -44.2745 H         1 UNK         0.0695 
     77 H77        16.2845  -27.7577  -45.5419 H         1 UNK         0.0695 
     78 H78        17.9604  -28.3439  -43.5408 H         1 UNK         0.0983 
     79 H79        19.0943  -26.7824  -44.5352 H         1 UNK         0.3095 
     80 H80        18.8522  -23.9303  -45.9470 H         1 UNK         0.0454 
     81 H81        19.9349  -22.3552  -44.3254 H         1 UNK         0.0851 
     82 H82        19.2971  -23.2937  -42.9780 H         1 UNK         0.0851 
     83 H83        18.2032  -22.4520  -44.0640 H         1 UNK         0.0851 
     84 H84        20.8433  -24.8912  -45.8785 H         1 UNK         0.2976 
     85 H85        18.8286  -26.1661  -42.0133 H         1 UNK         0.3116 
     86 H86        17.1498  -26.4172  -39.6045 H         1 UNK         0.0646 
     87 H87        17.0425  -23.9318  -39.2879 H         1 UNK         0.0847 
     88 H88        16.1409  -24.4411  -40.7058 H         1 UNK         0.0847 
     89 H89        17.7230  -23.6902  -40.8920 H         1 UNK         0.0847 
     90 H90        20.0743  -24.9104  -41.0815 H         1 UNK         0.3040 
     91 H91        21.5592  -24.9379  -38.5626 H         1 UNK         0.1015 
     92 H92        21.9652  -23.1686  -40.2780 H         1 UNK         0.0786 
     93 H93        22.4628  -24.3919  -41.4461 H         1 UNK         0.0786 
     94 H94        23.4149  -24.1190  -39.9966 H         1 UNK         0.0786 
     95 H95        21.0627  -26.9880  -41.3135 H         1 UNK         0.3172 
     96 H96        21.3288  -29.1454  -41.7057 H         1 UNK         0.0595 
     97 H97        22.6924  -29.4526  -38.9706 H         1 UNK         0.0839 
     98 H98        22.0823  -30.7531  -39.9617 H         1 UNK         0.0839 
     99 H99        20.9620  -29.5974  -39.2702 H         1 UNK         0.0839 
    100 H100       22.9496  -30.8833  -42.1085 H         1 UNK         0.2998 
    101 H101       25.7666  -29.9944  -42.4243 H         1 UNK         0.0822 
    102 H102       24.0570  -31.3114  -44.6149 H         1 UNK         0.0787 
    103 H103       24.7975  -29.7107  -44.6847 H         1 UNK         0.0787 
    104 H104       25.8062  -31.1413  -44.6680 H         1 UNK         0.0787 
    105 H105       25.2059  -31.1294  -40.2839 H         1 UNK         0.3055 
    106 H106       25.4529  -32.7493  -38.8246 H         1 UNK         0.1106 
    107 H107       26.4942  -34.5862  -41.0472 H         1 UNK         0.0828 
    108 H108       27.4776  -33.5208  -40.0460 H         1 UNK         0.0828 
    109 H109       26.6142  -34.8654  -39.3192 H         1 UNK         0.0828 
    110 H110       24.0497  -34.1095  -41.7983 H         1 UNK         0.2931 
    111 H111       22.2173  -35.2290  -42.2885 H         1 UNK         0.0412 
    112 H112       24.1573  -36.7175  -40.4325 H         1 UNK         0.3472 
    113 H113       23.1902  -38.0747  -39.9083 H         1 UNK         0.3472 
    114 H114       20.0741  -34.7107  -41.0521 H         1 UNK         0.0970 
    115 H115       20.9973  -33.9102  -39.8186 H         1 UNK         0.0970 
    116 H116       20.6223  -33.8907  -43.8624 H         1 UNK         0.0612 
    117 H117       19.1299  -33.7178  -42.9699 H         1 UNK         0.0612 
@<TRIPOS>BOND
     1    1    2 1    
     2    1   62 1    
     3    1   63 1    
     4    1   64 1    
     5    2    3 2    
     6    2    4 am   BACKBONE|DICT|INTERRES
     7    4    5 1    
     8    4   65 1    
     9    5    6 1    
    10    5   25 1    
    11    5   66 1    
    12    6    7 1    
    13    6   67 1    
    14    6   68 1    
    15    7    8 1    
    16    8    9 1    
    17    8   69 1    
    18    8   70 1    
    19    9   10 ar   
    20    9   14 ar   
    21   10   11 ar   
    22   10   71 1    
    23   11   12 ar   
    24   11   61 1    
    25   12   13 ar   
    26   12   72 1    
    27   13   14 ar   
    28   13   15 1    
    29   14   73 1    
    30   15   16 1    
    31   15   74 1    
    32   15   75 1    
    33   16   17 1    
    34   17   18 1    
    35   17   76 1    
    36   17   77 1    
    37   18   19 1    
    38   18   27 1    
    39   18   78 1    
    40   19   20 am   BACKBONE|DICT|INTERRES
    41   19   79 1    
    42   20   21 2    
    43   20   22 1    
    44   22   23 1    
    45   22   24 1    
    46   22   80 1    
    47   23   81 1    
    48   23   82 1    
    49   23   83 1    
    50   24   25 am   BACKBONE|DICT|INTERRES
    51   24   84 1    
    52   25   26 2    
    53   27   28 2    
    54   27   29 am   BACKBONE|DICT|INTERRES
    55   29   30 1    
    56   29   85 1    
    57   30   31 1    
    58   30   32 1    
    59   30   86 1    
    60   31   87 1    
    61   31   88 1    
    62   31   89 1    
    63   32   33 2    
    64   32   34 am   BACKBONE|DICT|INTERRES
    65   34   35 1    
    66   34   90 1    
    67   35   36 1    
    68   35   37 1    
    69   35   91 1    
    70   36   92 1    
    71   36   93 1    
    72   36   94 1    
    73   37   38 2    
    74   37   39 am   BACKBONE|DICT|INTERRES
    75   39   40 1    
    76   39   95 1    
    77   40   41 1    
    78   40   42 1    
    79   40   96 1    
    80   41   97 1    
    81   41   98 1    
    82   41   99 1    
    83   42   43 2    
    84   42   44 am   BACKBONE|DICT|INTERRES
    85   44   45 1    
    86   44  100 1    
    87   45   46 1    
    88   45   47 1    
    89   45  101 1    
    90   46  102 1    
    91   46  103 1    
    92   46  104 1    
    93   47   48 2    
    94   47   49 am   BACKBONE|DICT|INTERRES
    95   49   50 1    
    96   49  105 1    
    97   50   51 1    
    98   50   52 1    
    99   50  106 1    
   100   51  107 1    
   101   51  108 1    
   102   51  109 1    
   103   52   53 2    
   104   52   54 am   BACKBONE|DICT|INTERRES
   105   54   55 1    
   106   54  110 1    
   107   55   56 1    
   108   55   59 1    
   109   55  111 1    
   110   56   57 am   BACKBONE|DICT|INTERRES
   111   56   58 2    
   112   57  112 1    
   113   57  113 1    
   114   59   60 1    
   115   59  114 1    
   116   59  115 1    
   117   60   61 1    
   118   61  116 1    
   119   61  117 1    
@<TRIPOS>SUBSTRUCTURE
     1 UNK         1 GROUP             0       ****    0 ROOT    
