@<TRIPOS>MOLECULE
3R8
117   119    1
SMALL
USER_CHARGES


@<TRIPOS>ATOM
      1 CA         19.0362  -21.2304  -47.5628 C.3       0 UNK        -0.2013 
      2 C          19.2321  -22.5230  -46.7846 C.2       0 UNK         0.4866 
      3 O          20.2527  -22.6860  -46.1153 O.2       0 UNK        -0.5176 
      4 N          18.2669  -23.4471  -46.8727 N.am      1 UNK        -0.4884 
      5 CA         18.2565  -24.7147  -46.1374 C.3       1 UNK         0.0853 
      6 C6         17.2727  -25.7273  -46.7949 C.3       10 UNK        -0.0849 
      7 S7         16.8704  -27.2119  -45.8040 S.3       10 UNK        -0.2776 
      8 C8         18.1385  -28.4118  -46.3430 C.3       10 UNK         0.0316 
      9 C9         18.4452  -29.5138  -45.3230 C.ar      10 UNK        -0.0863 
     10 C10        19.6578  -30.2045  -45.4243 C.ar      10 UNK        -0.1009 
     11 C11        20.0045  -31.1885  -44.4923 C.ar      10 UNK        -0.0712 
     12 C12        19.1248  -31.4878  -43.4488 C.ar      10 UNK        -0.0894 
     13 C13        17.9004  -30.8253  -43.3428 C.ar      10 UNK        -0.0745 
     14 C14        17.5618  -29.8532  -44.2881 C.ar      10 UNK        -0.0972 
     15 C15        16.9406  -31.1531  -42.2077 C.3       10 UNK         0.0209 
     16 S16        16.6838  -29.7302  -41.0981 S.3       10 UNK        -0.2568 
     17 C17        18.2779  -29.6345  -40.2142 C.3       10 UNK        -0.0983 
     18 CA         19.3045  -28.6835  -40.8805 C.3       3 UNK         0.0876 
     19 N          18.7464  -27.3614  -41.1957 N.am      3 UNK        -0.4424 
     20 C          19.3829  -26.4253  -41.9095 C.2       2 UNK         0.4918 
     21 O          20.5636  -26.5064  -42.2561 O.2       2 UNK        -0.4875 
     22 CA         18.5720  -25.2017  -42.3382 C.3       2 UNK         0.0481 
     23 CB         19.0306  -23.9290  -41.6056 C.3       2 UNK        -0.1831 
     24 N          18.7711  -25.0795  -43.7755 N.am      2 UNK        -0.4498 
     25 C          17.9663  -24.4560  -44.6408 C.2       1 UNK         0.5027 
     26 O          17.0099  -23.7482  -44.3132 O.2       1 UNK        -0.4969 
     27 C          20.5916  -28.6128  -40.0372 C.2       3 UNK         0.5005 
     28 O          21.5134  -29.3914  -40.2783 O.2       3 UNK        -0.5279 
     29 N          20.6437  -27.6686  -39.0861 N.am      4 UNK        -0.4463 
     30 CA         21.8061  -27.4232  -38.2289 C.3       4 UNK         0.0283 
     31 CB         21.4122  -26.4852  -37.0767 C.3       4 UNK        -0.1875 
     32 C          23.0067  -26.8559  -39.0037 C.2       4 UNK         0.4949 
     33 O          24.1354  -27.2838  -38.7652 O.2       4 UNK        -0.5039 
     34 N          22.7416  -25.9276  -39.9347 N.am      5 UNK        -0.4663 
     35 CA         23.7522  -25.3200  -40.8071 C.3       5 UNK         0.0242 
     36 CB         23.1629  -24.0770  -41.4924 C.3       5 UNK        -0.1982 
     37 C          24.2849  -26.3113  -41.8532 C.2       5 UNK         0.5017 
     38 O          25.4808  -26.3075  -42.1444 O.2       5 UNK        -0.5012 
     39 N          23.3879  -27.1615  -42.3686 N.am      6 UNK        -0.4439 
     40 CA         23.6832  -28.2416  -43.3105 C.3       6 UNK         0.0297 
     41 CB         22.3974  -28.5719  -44.0793 C.3       6 UNK        -0.2006 
     42 C          24.2831  -29.5024  -42.6500 C.2       6 UNK         0.4892 
     43 O          24.5945  -30.4542  -43.3668 O.2       6 UNK        -0.5089 
     44 N          24.4443  -29.4861  -41.3174 N.am      7 UNK        -0.4243 
     45 CA         25.0520  -30.5168  -40.4686 C.3       7 UNK         0.0196 
     46 CB         26.5536  -30.6761  -40.7902 C.3       7 UNK        -0.2007 
     47 C          24.2871  -31.8541  -40.4762 C.2       7 UNK         0.5020 
     48 O          24.9073  -32.9181  -40.5202 O.2       7 UNK        -0.5147 
     49 N          22.9502  -31.7764  -40.4226 N.am      8 UNK        -0.4734 
     50 CA         21.9536  -32.8529  -40.2971 C.3       8 UNK         0.0238 
     51 CB         22.1335  -33.6204  -38.9732 C.3       8 UNK        -0.1912 
     52 C          21.8448  -33.8292  -41.4841 C.2       8 UNK         0.5038 
     53 O          20.7349  -34.2848  -41.7566 O.2       8 UNK        -0.5046 
     54 N          22.9688  -34.1255  -42.1498 N.am      9 UNK        -0.4200 
     55 CA         23.1447  -34.9727  -43.3453 C.3       9 UNK         0.0839 
     56 C          22.5522  -36.4154  -43.2901 C.2       9 UNK         0.5513 
     57 N          22.2972  -36.9773  -42.1149 N.am      9 UNK        -0.7519 
     58 O          22.3683  -37.0591  -44.3204 O.2       9 UNK        -0.4960 
     59 C59        22.8928  -34.2147  -44.6837 C.3       10 UNK        -0.0876 
     60 S60        21.1772  -33.6599  -44.9748 S.3       10 UNK        -0.2414 
     61 C61        21.3493  -31.8942  -44.5780 C.3       10 UNK         0.0169 
     62 H62        18.0990  -21.2264  -48.1191 H         1 UNK         0.0903 
     63 H63        19.0295  -20.3801  -46.8814 H         1 UNK         0.0903 
     64 H64        19.8518  -21.0922  -48.2721 H         1 UNK         0.0903 
     65 H65        17.4363  -23.2442  -47.4111 H         1 UNK         0.3096 
     66 H66        19.2583  -25.1444  -46.2131 H         1 UNK         0.1121 
     67 H67        17.6535  -26.0386  -47.7690 H         1 UNK         0.0849 
     68 H68        16.3220  -25.2308  -46.9977 H         1 UNK         0.0849 
     69 H69        17.8183  -28.8705  -47.2794 H         1 UNK         0.0865 
     70 H70        19.0590  -27.8676  -46.5602 H         1 UNK         0.0865 
     71 H71        20.3461  -29.9606  -46.2222 H         1 UNK         0.1346 
     72 H72        19.3959  -32.2410  -42.7224 H         1 UNK         0.1412 
     73 H73        16.6094  -29.3522  -44.1903 H         1 UNK         0.1426 
     74 H74        17.2896  -32.0095  -41.6284 H         1 UNK         0.0716 
     75 H75        15.9790  -31.4434  -42.6331 H         1 UNK         0.0716 
     76 H76        18.6929  -30.6402  -40.1230 H         1 UNK         0.0695 
     77 H77        18.0610  -29.3052  -39.1961 H         1 UNK         0.0695 
     78 H78        19.5940  -29.1257  -41.8357 H         1 UNK         0.0983 
     79 H79        17.7708  -27.2317  -40.9686 H         1 UNK         0.3095 
     80 H80        17.5138  -25.3793  -42.1353 H         1 UNK         0.0454 
     81 H81        20.0722  -23.6916  -41.8207 H         1 UNK         0.0851 
     82 H82        18.9348  -24.0427  -40.5253 H         1 UNK         0.0851 
     83 H83        18.4286  -23.0676  -41.8947 H         1 UNK         0.0851 
     84 H84        19.5418  -25.6360  -44.1236 H         1 UNK         0.2976 
     85 H85        19.8383  -27.0733  -38.9564 H         1 UNK         0.3116 
     86 H86        22.1127  -28.3788  -37.7976 H         1 UNK         0.0646 
     87 H87        21.0706  -25.5149  -37.4393 H         1 UNK         0.0847 
     88 H88        22.2608  -26.3044  -36.4153 H         1 UNK         0.0847 
     89 H89        20.6170  -26.9159  -36.4681 H         1 UNK         0.0847 
     90 H90        21.7806  -25.6638  -40.0957 H         1 UNK         0.3040 
     91 H91        24.5945  -25.0046  -40.1867 H         1 UNK         0.1015 
     92 H92        22.3461  -24.3364  -42.1667 H         1 UNK         0.0786 
     93 H93        23.9219  -23.5664  -42.0868 H         1 UNK         0.0786 
     94 H94        22.7859  -23.3593  -40.7636 H         1 UNK         0.0786 
     95 H95        22.4110  -27.0412  -42.1126 H         1 UNK         0.3172 
     96 H96        24.4188  -27.8762  -44.0299 H         1 UNK         0.0595 
     97 H97        21.6468  -29.0213  -43.4282 H         1 UNK         0.0839 
     98 H98        22.6036  -29.2690  -44.8901 H         1 UNK         0.0839 
     99 H99        21.9587  -27.6812  -44.5293 H         1 UNK         0.0839 
    100 H100       24.1093  -28.6686  -40.8252 H         1 UNK         0.2998 
    101 H101       24.9774  -30.1401  -39.4472 H         1 UNK         0.0822 
    102 H102       27.0719  -29.7182  -40.7459 H         1 UNK         0.0787 
    103 H103       27.0390  -31.3394  -40.0731 H         1 UNK         0.0787 
    104 H104       26.7129  -31.0989  -41.7826 H         1 UNK         0.0787 
    105 H105       22.5431  -30.8393  -40.4249 H         1 UNK         0.3055 
    106 H106       20.9914  -32.3398  -40.2456 H         1 UNK         0.1106 
    107 H107       21.3356  -34.3514  -38.8351 H         1 UNK         0.0828 
    108 H108       23.0786  -34.1633  -38.9410 H         1 UNK         0.0828 
    109 H109       22.1047  -32.9458  -38.1175 H         1 UNK         0.0828 
    110 H110       23.8236  -33.7301  -41.7659 H         1 UNK         0.2931 
    111 H111       24.2176  -35.1688  -43.3394 H         1 UNK         0.0412 
    112 H112       22.4400  -36.4604  -41.2623 H         1 UNK         0.3472 
    113 H113       21.9295  -37.9152  -42.0839 H         1 UNK         0.3472 
    114 H114       23.1873  -34.8398  -45.5284 H         1 UNK         0.0970 
    115 H115       23.5582  -33.3512  -44.7338 H         1 UNK         0.0970 
    116 H116       21.8725  -31.7754  -43.6283 H         1 UNK         0.0612 
    117 H117       21.9813  -31.4363  -45.3393 H         1 UNK         0.0612 
@<TRIPOS>BOND
     1    1    2 1    
     2    1   62 1    
     3    1   63 1    
     4    1   64 1    
     5    2    3 2    
     6    2    4 am   BACKBONE|DICT|INTERRES
     7    4    5 1    
     8    4   65 1    
     9    5    6 1    
    10    5   25 1    
    11    5   66 1    
    12    6    7 1    
    13    6   67 1    
    14    6   68 1    
    15    7    8 1    
    16    8    9 1    
    17    8   69 1    
    18    8   70 1    
    19    9   10 ar   
    20    9   14 ar   
    21   10   11 ar   
    22   10   71 1    
    23   11   12 ar   
    24   11   61 1    
    25   12   13 ar   
    26   12   72 1    
    27   13   14 ar   
    28   13   15 1    
    29   14   73 1    
    30   15   16 1    
    31   15   74 1    
    32   15   75 1    
    33   16   17 1    
    34   17   18 1    
    35   17   76 1    
    36   17   77 1    
    37   18   19 1    
    38   18   27 1    
    39   18   78 1    
    40   19   20 am   BACKBONE|DICT|INTERRES
    41   19   79 1    
    42   20   21 2    
    43   20   22 1    
    44   22   23 1    
    45   22   24 1    
    46   22   80 1    
    47   23   81 1    
    48   23   82 1    
    49   23   83 1    
    50   24   25 am   BACKBONE|DICT|INTERRES
    51   24   84 1    
    52   25   26 2    
    53   27   28 2    
    54   27   29 am   BACKBONE|DICT|INTERRES
    55   29   30 1    
    56   29   85 1    
    57   30   31 1    
    58   30   32 1    
    59   30   86 1    
    60   31   87 1    
    61   31   88 1    
    62   31   89 1    
    63   32   33 2    
    64   32   34 am   BACKBONE|DICT|INTERRES
    65   34   35 1    
    66   34   90 1    
    67   35   36 1    
    68   35   37 1    
    69   35   91 1    
    70   36   92 1    
    71   36   93 1    
    72   36   94 1    
    73   37   38 2    
    74   37   39 am   BACKBONE|DICT|INTERRES
    75   39   40 1    
    76   39   95 1    
    77   40   41 1    
    78   40   42 1    
    79   40   96 1    
    80   41   97 1    
    81   41   98 1    
    82   41   99 1    
    83   42   43 2    
    84   42   44 am   BACKBONE|DICT|INTERRES
    85   44   45 1    
    86   44  100 1    
    87   45   46 1    
    88   45   47 1    
    89   45  101 1    
    90   46  102 1    
    91   46  103 1    
    92   46  104 1    
    93   47   48 2    
    94   47   49 am   BACKBONE|DICT|INTERRES
    95   49   50 1    
    96   49  105 1    
    97   50   51 1    
    98   50   52 1    
    99   50  106 1    
   100   51  107 1    
   101   51  108 1    
   102   51  109 1    
   103   52   53 2    
   104   52   54 am   BACKBONE|DICT|INTERRES
   105   54   55 1    
   106   54  110 1    
   107   55   56 1    
   108   55   59 1    
   109   55  111 1    
   110   56   57 am   BACKBONE|DICT|INTERRES
   111   56   58 2    
   112   57  112 1    
   113   57  113 1    
   114   59   60 1    
   115   59  114 1    
   116   59  115 1    
   117   60   61 1    
   118   61  116 1    
   119   61  117 1    
@<TRIPOS>SUBSTRUCTURE
     1 UNK         1 GROUP             0       ****    0 ROOT    
