@<TRIPOS>MOLECULE
3R8
117   119    1
SMALL
USER_CHARGES


@<TRIPOS>ATOM
      1 CA         15.2763  -24.2870  -46.0129 C.3       0 UNK        -0.2013 
      2 C          16.1629  -25.4506  -45.5966 C.2       0 UNK         0.4866 
      3 O          17.3501  -25.2540  -45.3353 O.2       0 UNK        -0.5176 
      4 N          15.5975  -26.6624  -45.5256 N.am      1 UNK        -0.4884 
      5 CA         16.2831  -27.9038  -45.1451 C.3       1 UNK         0.0853 
      6 C6         15.5516  -29.1525  -45.7006 C.3       10 UNK        -0.0849 
      7 S7         15.7187  -29.2459  -47.5153 S.3       10 UNK        -0.2776 
      8 C8         16.9451  -30.5835  -47.7165 C.3       10 UNK         0.0316 
      9 C9         18.2037  -30.3732  -46.8805 C.ar      10 UNK        -0.0863 
     10 C10        18.5360  -31.2863  -45.8742 C.ar      10 UNK        -0.1009 
     11 C11        19.6899  -31.1104  -45.1047 C.ar      10 UNK        -0.0712 
     12 C12        20.5158  -30.0127  -45.3552 C.ar      10 UNK        -0.0894 
     13 C13        20.1968  -29.0859  -46.3532 C.ar      10 UNK        -0.0745 
     14 C14        19.0416  -29.2783  -47.1181 C.ar      10 UNK        -0.0972 
     15 C15        21.1176  -27.9053  -46.6437 C.3       10 UNK         0.0209 
     16 S16        20.9162  -26.5379  -45.4516 S.3       10 UNK        -0.2568 
     17 C17        22.0503  -27.0500  -44.1132 C.3       10 UNK        -0.0983 
     18 CA         21.5128  -26.8353  -42.6701 C.3       3 UNK         0.0876 
     19 N          20.0862  -27.1472  -42.5350 N.am      3 UNK        -0.4424 
     20 C          19.2680  -26.6301  -41.6068 C.2       2 UNK         0.4918 
     21 O          19.6563  -25.8864  -40.7039 O.2       2 UNK        -0.4875 
     22 CA         17.7763  -26.9844  -41.7206 C.3       2 UNK         0.0481 
     23 CB         16.8611  -25.9723  -41.0065 C.3       2 UNK        -0.1831 
     24 N          17.3860  -27.1029  -43.1231 N.am      2 UNK        -0.4498 
     25 C          16.4998  -27.9710  -43.6205 C.2       1 UNK         0.5027 
     26 O          15.8646  -28.7738  -42.9348 O.2       1 UNK        -0.4969 
     27 C          22.3438  -27.6057  -41.6173 C.2       3 UNK         0.5005 
     28 O          23.0889  -28.5284  -41.9625 O.2       3 UNK        -0.5279 
     29 N          22.1792  -27.2361  -40.3392 N.am      4 UNK        -0.4463 
     30 CA         22.8021  -27.8653  -39.1684 C.3       4 UNK         0.0283 
     31 CB         22.3718  -27.1211  -37.8942 C.3       4 UNK        -0.1875 
     32 C          24.3346  -27.9597  -39.2352 C.2       4 UNK         0.4949 
     33 O          24.8948  -28.9877  -38.8577 O.2       4 UNK        -0.5039 
     34 N          24.9759  -26.9016  -39.7447 N.am      5 UNK        -0.4663 
     35 CA         26.4281  -26.8237  -39.9142 C.3       5 UNK         0.0242 
     36 CB         26.8301  -25.3480  -40.0740 C.3       5 UNK        -0.1982 
     37 C          26.9616  -27.6536  -41.0964 C.2       5 UNK         0.5017 
     38 O          28.1581  -27.9455  -41.1181 O.2       5 UNK        -0.5012 
     39 N          26.0940  -27.9907  -42.0615 N.am      6 UNK        -0.4439 
     40 CA         26.4657  -28.6885  -43.2923 C.3       6 UNK         0.0297 
     41 CB         25.7408  -28.0534  -44.4897 C.3       6 UNK        -0.2006 
     42 C          26.1608  -30.1894  -43.2187 C.2       6 UNK         0.4892 
     43 O          27.0264  -30.9873  -43.5813 O.2       6 UNK        -0.5089 
     44 N          24.9446  -30.5518  -42.7848 N.am      7 UNK        -0.4243 
     45 CA         24.4457  -31.9300  -42.8425 C.3       7 UNK         0.0196 
     46 CB         23.8551  -32.2108  -44.2398 C.3       7 UNK        -0.2007 
     47 C          23.4903  -32.2883  -41.6915 C.2       7 UNK         0.5020 
     48 O          22.7352  -33.2519  -41.8168 O.2       7 UNK        -0.5147 
     49 N          23.5568  -31.5428  -40.5781 N.am      8 UNK        -0.4734 
     50 CA         22.9034  -31.8253  -39.2886 C.3       8 UNK         0.0238 
     51 CB         23.4455  -33.1396  -38.6840 C.3       8 UNK        -0.1912 
     52 C          21.3592  -31.7838  -39.2847 C.2       8 UNK         0.5038 
     53 O          20.7598  -32.2420  -38.3104 O.2       8 UNK        -0.5046 
     54 N          20.7341  -31.2192  -40.3284 N.am      9 UNK        -0.4200 
     55 CA         19.2706  -31.0423  -40.4085 C.3       9 UNK         0.0839 
     56 C          18.6994  -29.9416  -39.4687 C.2       9 UNK         0.5513 
     57 N          19.5072  -29.0363  -38.9333 N.am      9 UNK        -0.7519 
     58 O          17.4979  -29.9128  -39.2191 O.2       9 UNK        -0.4960 
     59 C59        18.7793  -30.8421  -41.8673 C.3       10 UNK        -0.0876 
     60 S60        18.7747  -32.4066  -42.8023 S.3       10 UNK        -0.2414 
     61 C61        20.0795  -32.1276  -44.0374 C.3       10 UNK         0.0169 
     62 H62        14.2544  -24.6052  -46.2183 H         1 UNK         0.0903 
     63 H63        15.2464  -23.5374  -45.2226 H         1 UNK         0.0903 
     64 H64        15.6728  -23.8179  -46.9129 H         1 UNK         0.0903 
     65 H65        14.6155  -26.7611  -45.7415 H         1 UNK         0.3096 
     66 H66        17.2826  -27.8845  -45.5832 H         1 UNK         0.1121 
     67 H67        14.4919  -29.1292  -45.4407 H         1 UNK         0.0849 
     68 H68        15.9443  -30.0713  -45.2607 H         1 UNK         0.0849 
     69 H69        16.4694  -31.5333  -47.4666 H         1 UNK         0.0865 
     70 H70        17.2237  -30.6524  -48.7690 H         1 UNK         0.0865 
     71 H71        17.9004  -32.1416  -45.6889 H         1 UNK         0.1346 
     72 H72        21.4200  -29.9008  -44.7802 H         1 UNK         0.1412 
     73 H73        18.7879  -28.5739  -47.8990 H         1 UNK         0.1426 
     74 H74        20.9155  -27.5155  -47.6425 H         1 UNK         0.0716 
     75 H75        22.1572  -28.2361  -46.6613 H         1 UNK         0.0716 
     76 H76        22.9761  -26.4863  -44.2385 H         1 UNK         0.0695 
     77 H77        22.3257  -28.0870  -44.2791 H         1 UNK         0.0695 
     78 H78        21.6364  -25.7718  -42.4518 H         1 UNK         0.0983 
     79 H79        19.6953  -27.7341  -43.2568 H         1 UNK         0.3095 
     80 H80        17.6541  -27.9518  -41.2349 H         1 UNK         0.0454 
     81 H81        16.9596  -24.9731  -41.4320 H         1 UNK         0.0851 
     82 H82        17.1036  -25.9039  -39.9453 H         1 UNK         0.0851 
     83 H83        15.8138  -26.2659  -41.0774 H         1 UNK         0.0851 
     84 H84        17.7884  -26.4246  -43.7663 H         1 UNK         0.2976 
     85 H85        21.4914  -26.5104  -40.1579 H         1 UNK         0.3116 
     86 H86        22.4182  -28.8828  -39.1129 H         1 UNK         0.0646 
     87 H87        22.7183  -26.0868  -37.8943 H         1 UNK         0.0847 
     88 H88        22.7825  -27.6007  -37.0044 H         1 UNK         0.0847 
     89 H89        21.2883  -27.1065  -37.7799 H         1 UNK         0.0847 
     90 H90        24.4336  -26.0986  -40.0297 H         1 UNK         0.3040 
     91 H91        26.9027  -27.2107  -39.0092 H         1 UNK         0.1015 
     92 H92        26.3820  -24.9003  -40.9620 H         1 UNK         0.0786 
     93 H93        27.9123  -25.2457  -40.1689 H         1 UNK         0.0786 
     94 H94        26.5268  -24.7576  -39.2091 H         1 UNK         0.0786 
     95 H95        25.1127  -27.7813  -41.9286 H         1 UNK         0.3172 
     96 H96        27.5374  -28.5760  -43.4712 H         1 UNK         0.0595 
     97 H97        26.0743  -28.5024  -45.4262 H         1 UNK         0.0839 
     98 H98        25.9381  -26.9833  -44.5552 H         1 UNK         0.0839 
     99 H99        24.6634  -28.1959  -44.4323 H         1 UNK         0.0839 
    100 H100       24.2763  -29.8341  -42.5074 H         1 UNK         0.2998 
    101 H101       25.2867  -32.6128  -42.7031 H         1 UNK         0.0822 
    102 H102       23.4206  -33.2091  -44.3048 H         1 UNK         0.0787 
    103 H103       23.0795  -31.4931  -44.4984 H         1 UNK         0.0787 
    104 H104       24.6252  -32.1512  -45.0090 H         1 UNK         0.0787 
    105 H105       24.2027  -30.7638  -40.5698 H         1 UNK         0.3055 
    106 H106       23.2131  -31.0275  -38.6138 H         1 UNK         0.1106 
    107 H107       23.1008  -33.2736  -37.6578 H         1 UNK         0.0828 
    108 H108       23.1189  -34.0123  -39.2502 H         1 UNK         0.0828 
    109 H109       24.5351  -33.1446  -38.6571 H         1 UNK         0.0828 
    110 H110       21.2880  -30.8788  -41.0993 H         1 UNK         0.2931 
    111 H111       18.8201  -31.9689  -40.0460 H         1 UNK         0.0412 
    112 H112       19.1180  -28.3394  -38.3182 H         1 UNK         0.3472 
    113 H113       20.4932  -29.0517  -39.1249 H         1 UNK         0.3472 
    114 H114       17.7498  -30.4790  -41.8876 H         1 UNK         0.0970 
    115 H115       19.3723  -30.0846  -42.3809 H         1 UNK         0.0970 
    116 H116       20.3117  -33.0758  -44.5236 H         1 UNK         0.0612 
    117 H117       20.9830  -31.8207  -43.5115 H         1 UNK         0.0612 
@<TRIPOS>BOND
     1    1    2 1    
     2    1   62 1    
     3    1   63 1    
     4    1   64 1    
     5    2    3 2    
     6    2    4 am   BACKBONE|DICT|INTERRES
     7    4    5 1    
     8    4   65 1    
     9    5    6 1    
    10    5   25 1    
    11    5   66 1    
    12    6    7 1    
    13    6   67 1    
    14    6   68 1    
    15    7    8 1    
    16    8    9 1    
    17    8   69 1    
    18    8   70 1    
    19    9   10 ar   
    20    9   14 ar   
    21   10   11 ar   
    22   10   71 1    
    23   11   12 ar   
    24   11   61 1    
    25   12   13 ar   
    26   12   72 1    
    27   13   14 ar   
    28   13   15 1    
    29   14   73 1    
    30   15   16 1    
    31   15   74 1    
    32   15   75 1    
    33   16   17 1    
    34   17   18 1    
    35   17   76 1    
    36   17   77 1    
    37   18   19 1    
    38   18   27 1    
    39   18   78 1    
    40   19   20 am   BACKBONE|DICT|INTERRES
    41   19   79 1    
    42   20   21 2    
    43   20   22 1    
    44   22   23 1    
    45   22   24 1    
    46   22   80 1    
    47   23   81 1    
    48   23   82 1    
    49   23   83 1    
    50   24   25 am   BACKBONE|DICT|INTERRES
    51   24   84 1    
    52   25   26 2    
    53   27   28 2    
    54   27   29 am   BACKBONE|DICT|INTERRES
    55   29   30 1    
    56   29   85 1    
    57   30   31 1    
    58   30   32 1    
    59   30   86 1    
    60   31   87 1    
    61   31   88 1    
    62   31   89 1    
    63   32   33 2    
    64   32   34 am   BACKBONE|DICT|INTERRES
    65   34   35 1    
    66   34   90 1    
    67   35   36 1    
    68   35   37 1    
    69   35   91 1    
    70   36   92 1    
    71   36   93 1    
    72   36   94 1    
    73   37   38 2    
    74   37   39 am   BACKBONE|DICT|INTERRES
    75   39   40 1    
    76   39   95 1    
    77   40   41 1    
    78   40   42 1    
    79   40   96 1    
    80   41   97 1    
    81   41   98 1    
    82   41   99 1    
    83   42   43 2    
    84   42   44 am   BACKBONE|DICT|INTERRES
    85   44   45 1    
    86   44  100 1    
    87   45   46 1    
    88   45   47 1    
    89   45  101 1    
    90   46  102 1    
    91   46  103 1    
    92   46  104 1    
    93   47   48 2    
    94   47   49 am   BACKBONE|DICT|INTERRES
    95   49   50 1    
    96   49  105 1    
    97   50   51 1    
    98   50   52 1    
    99   50  106 1    
   100   51  107 1    
   101   51  108 1    
   102   51  109 1    
   103   52   53 2    
   104   52   54 am   BACKBONE|DICT|INTERRES
   105   54   55 1    
   106   54  110 1    
   107   55   56 1    
   108   55   59 1    
   109   55  111 1    
   110   56   57 am   BACKBONE|DICT|INTERRES
   111   56   58 2    
   112   57  112 1    
   113   57  113 1    
   114   59   60 1    
   115   59  114 1    
   116   59  115 1    
   117   60   61 1    
   118   61  116 1    
   119   61  117 1    
@<TRIPOS>SUBSTRUCTURE
     1 UNK         1 GROUP             0       ****    0 ROOT    
