@<TRIPOS>MOLECULE
3R8
117   119    1
SMALL
USER_CHARGES


@<TRIPOS>ATOM
      1 CA         13.5215  -22.5513  -45.1014 C.3       0 UNK        -0.2013 
      2 C          14.6081  -23.2514  -45.9036 C.2       0 UNK         0.4866 
      3 O          15.1817  -22.6513  -46.8133 O.2       0 UNK        -0.5176 
      4 N          14.8887  -24.5195  -45.5810 N.am      1 UNK        -0.4884 
      5 CA         15.9502  -25.3305  -46.1839 C.3       1 UNK         0.0853 
      6 C6         15.7670  -26.8485  -45.9050 C.3       10 UNK        -0.0849 
      7 S7         15.2489  -27.2737  -44.1996 S.3       10 UNK        -0.2776 
      8 C8         14.9356  -29.0661  -44.3397 C.3       10 UNK         0.0316 
      9 C9         16.2166  -29.8618  -44.1420 C.ar      10 UNK        -0.0863 
     10 C10        16.5525  -30.3588  -42.8767 C.ar      10 UNK        -0.1009 
     11 C11        17.7672  -31.0233  -42.6790 C.ar      10 UNK        -0.0712 
     12 C12        18.6431  -31.1915  -43.7529 C.ar      10 UNK        -0.0894 
     13 C13        18.3324  -30.6656  -45.0076 C.ar      10 UNK        -0.0745 
     14 C14        17.0981  -30.0457  -45.2110 C.ar      10 UNK        -0.0972 
     15 C15        19.3929  -30.6328  -46.0946 C.3       10 UNK         0.0209 
     16 S16        20.1167  -28.9606  -46.2617 S.3       10 UNK        -0.2568 
     17 C17        20.2614  -28.3938  -44.5248 C.3       10 UNK        -0.0983 
     18 CA         21.0085  -27.0479  -44.3699 C.3       3 UNK         0.0876 
     19 N          20.2702  -25.9542  -45.0014 N.am      3 UNK        -0.4424 
     20 C          20.5800  -25.3444  -46.1466 C.2       2 UNK         0.4918 
     21 O          21.5468  -25.6480  -46.8480 O.2       2 UNK        -0.4875 
     22 CA         19.6287  -24.2131  -46.5819 C.3       2 UNK         0.0481 
     23 CB         20.0773  -23.5327  -47.8890 C.3       2 UNK        -0.1831 
     24 N          18.2558  -24.7005  -46.7485 N.am      2 UNK        -0.4498 
     25 C          17.3481  -24.8208  -45.7693 C.2       1 UNK         0.5027 
     26 O          17.5834  -24.5574  -44.5871 O.2       1 UNK        -0.4969 
     27 C          21.2035  -26.6858  -42.8831 C.2       3 UNK         0.5005 
     28 O          20.5608  -25.7520  -42.3909 O.2       3 UNK        -0.5279 
     29 N          22.0861  -27.4131  -42.1865 N.am      4 UNK        -0.4463 
     30 CA         22.4316  -27.1710  -40.7858 C.3       4 UNK         0.0283 
     31 CB         23.5514  -26.1150  -40.7078 C.3       4 UNK        -0.1875 
     32 C          22.8573  -28.4744  -40.1009 C.2       4 UNK         0.4949 
     33 O          23.1183  -29.4755  -40.7758 O.2       4 UNK        -0.5039 
     34 N          22.9386  -28.4237  -38.7648 N.am      5 UNK        -0.4663 
     35 CA         23.4396  -29.4972  -37.9039 C.3       5 UNK         0.0242 
     36 CB         23.2407  -29.1049  -36.4318 C.3       5 UNK        -0.1982 
     37 C          24.9140  -29.8167  -38.1857 C.2       5 UNK         0.5017 
     38 O          25.7009  -28.8952  -38.4124 O.2       5 UNK        -0.5012 
     39 N          25.2466  -31.1142  -38.2003 N.am      6 UNK        -0.4439 
     40 CA         26.5427  -31.7262  -38.5315 C.3       6 UNK         0.0297 
     41 CB         27.6763  -31.2165  -37.6197 C.3       6 UNK        -0.2006 
     42 C          26.9257  -31.6189  -40.0199 C.2       6 UNK         0.4892 
     43 O          27.5178  -32.5596  -40.5498 O.2       6 UNK        -0.5089 
     44 N          26.5608  -30.5087  -40.6757 N.am      7 UNK        -0.4243 
     45 CA         26.6706  -30.3015  -42.1201 C.3       7 UNK         0.0196 
     46 CB         26.3689  -28.8312  -42.4521 C.3       7 UNK        -0.2007 
     47 C          25.7424  -31.2380  -42.9112 C.2       7 UNK         0.5020 
     48 O          26.1538  -31.7574  -43.9491 O.2       7 UNK        -0.5147 
     49 N          24.5245  -31.4543  -42.3975 N.am      8 UNK        -0.4734 
     50 CA         23.5509  -32.3932  -42.9508 C.3       8 UNK         0.0238 
     51 CB         22.7008  -31.7088  -44.0333 C.3       8 UNK        -0.1912 
     52 C          22.6660  -33.0063  -41.8591 C.2       8 UNK         0.5038 
     53 O          22.4909  -34.2256  -41.8571 O.2       8 UNK        -0.5046 
     54 N          22.1091  -32.1721  -40.9690 N.am      9 UNK        -0.4200 
     55 CA         21.1901  -32.6145  -39.9065 C.3       9 UNK         0.0839 
     56 C          21.9377  -33.3109  -38.7381 C.2       9 UNK         0.5513 
     57 N          21.3037  -34.2710  -38.0804 N.am      9 UNK        -0.7519 
     58 O          23.0640  -32.9564  -38.3928 O.2       9 UNK        -0.4960 
     59 C59        20.2640  -31.4816  -39.3765 C.3       10 UNK        -0.0876 
     60 S60        19.5354  -30.4340  -40.6772 S.3       10 UNK        -0.2414 
     61 C61        18.1924  -31.4929  -41.2986 C.3       10 UNK         0.0169 
     62 H62        12.7173  -22.2272  -45.7614 H         1 UNK         0.0903 
     63 H63        13.0933  -23.2028  -44.3397 H         1 UNK         0.0903 
     64 H64        13.9303  -21.6719  -44.6044 H         1 UNK         0.0903 
     65 H65        14.4145  -24.9597  -44.8040 H         1 UNK         0.3096 
     66 H66        15.8695  -25.1954  -47.2653 H         1 UNK         0.1121 
     67 H67        15.0049  -27.2373  -46.5822 H         1 UNK         0.0849 
     68 H68        16.6810  -27.3911  -46.1497 H         1 UNK         0.0849 
     69 H69        14.1999  -29.3535  -43.5869 H         1 UNK         0.0865 
     70 H70        14.4854  -29.2991  -45.3058 H         1 UNK         0.0865 
     71 H71        15.8865  -30.1966  -42.0402 H         1 UNK         0.1346 
     72 H72        19.6046  -31.6567  -43.5847 H         1 UNK         0.1412 
     73 H73        16.8633  -29.6381  -46.1839 H         1 UNK         0.1426 
     74 H74        18.9583  -30.9352  -47.0483 H         1 UNK         0.0716 
     75 H75        20.1899  -31.3453  -45.8786 H         1 UNK         0.0716 
     76 H76        20.7573  -29.1770  -43.9541 H         1 UNK         0.0695 
     77 H77        19.2582  -28.3004  -44.1036 H         1 UNK         0.0695 
     78 H78        22.0023  -27.1340  -44.8149 H         1 UNK         0.0983 
     79 H79        19.4960  -25.5911  -44.4552 H         1 UNK         0.3095 
     80 H80        19.6469  -23.4548  -45.7962 H         1 UNK         0.0454 
     81 H81        21.0836  -23.1234  -47.7907 H         1 UNK         0.0851 
     82 H82        19.4185  -22.7048  -48.1517 H         1 UNK         0.0851 
     83 H83        20.0899  -24.2311  -48.7266 H         1 UNK         0.0851 
     84 H84        17.9973  -24.9723  -47.6865 H         1 UNK         0.2976 
     85 H85        22.5350  -28.2202  -42.6002 H         1 UNK         0.3116 
     86 H86        21.5507  -26.8032  -40.2547 H         1 UNK         0.0646 
     87 H87        23.8327  -25.9061  -39.6751 H         1 UNK         0.0847 
     88 H88        23.2365  -25.1694  -41.1495 H         1 UNK         0.0847 
     89 H89        24.4513  -26.4429  -41.2288 H         1 UNK         0.0847 
     90 H90        22.7297  -27.5491  -38.3056 H         1 UNK         0.3040 
     91 H91        22.8532  -30.3902  -38.1049 H         1 UNK         0.1015 
     92 H92        23.5825  -29.8996  -35.7669 H         1 UNK         0.0786 
     93 H93        22.1891  -28.9263  -36.2064 H         1 UNK         0.0786 
     94 H94        23.7988  -28.2033  -36.1756 H         1 UNK         0.0786 
     95 H95        24.4907  -31.7885  -38.0820 H         1 UNK         0.3172 
     96 H96        26.4141  -32.7898  -38.3239 H         1 UNK         0.0595 
     97 H97        27.9090  -30.1667  -37.7992 H         1 UNK         0.0839 
     98 H98        28.5933  -31.7814  -37.7923 H         1 UNK         0.0839 
     99 H99        27.4200  -31.3292  -36.5663 H         1 UNK         0.0839 
    100 H100       26.1274  -29.7702  -40.1310 H         1 UNK         0.2998 
    101 H101       27.6994  -30.5191  -42.4149 H         1 UNK         0.0822 
    102 H102       27.0497  -28.1580  -41.9306 H         1 UNK         0.0787 
    103 H103       26.4811  -28.6428  -43.5206 H         1 UNK         0.0787 
    104 H104       25.3501  -28.5565  -42.1783 H         1 UNK         0.0787 
    105 H105       24.2490  -30.9463  -41.5631 H         1 UNK         0.3055 
    106 H106       24.0888  -33.2234  -43.4154 H         1 UNK         0.1106 
    107 H107       23.3158  -31.3524  -44.8597 H         1 UNK         0.0828 
    108 H108       21.9672  -32.4005  -44.4490 H         1 UNK         0.0828 
    109 H109       22.1600  -30.8575  -43.6256 H         1 UNK         0.0828 
    110 H110       22.3129  -31.1780  -41.0026 H         1 UNK         0.2931 
    111 H111       20.5349  -33.3637  -40.3556 H         1 UNK         0.0412 
    112 H112       20.3771  -34.5658  -38.3475 H         1 UNK         0.3472 
    113 H113       21.7684  -34.7224  -37.3079 H         1 UNK         0.3472 
    114 H114       19.4556  -31.9056  -38.7781 H         1 UNK         0.0970 
    115 H115       20.8020  -30.8152  -38.7050 H         1 UNK         0.0970 
    116 H116       17.3570  -31.4723  -40.5974 H         1 UNK         0.0612 
    117 H117       18.5289  -32.5282  -41.3621 H         1 UNK         0.0612 
@<TRIPOS>BOND
     1    1    2 1    
     2    1   62 1    
     3    1   63 1    
     4    1   64 1    
     5    2    3 2    
     6    2    4 am   BACKBONE|DICT|INTERRES
     7    4    5 1    
     8    4   65 1    
     9    5    6 1    
    10    5   25 1    
    11    5   66 1    
    12    6    7 1    
    13    6   67 1    
    14    6   68 1    
    15    7    8 1    
    16    8    9 1    
    17    8   69 1    
    18    8   70 1    
    19    9   10 ar   
    20    9   14 ar   
    21   10   11 ar   
    22   10   71 1    
    23   11   12 ar   
    24   11   61 1    
    25   12   13 ar   
    26   12   72 1    
    27   13   14 ar   
    28   13   15 1    
    29   14   73 1    
    30   15   16 1    
    31   15   74 1    
    32   15   75 1    
    33   16   17 1    
    34   17   18 1    
    35   17   76 1    
    36   17   77 1    
    37   18   19 1    
    38   18   27 1    
    39   18   78 1    
    40   19   20 am   BACKBONE|DICT|INTERRES
    41   19   79 1    
    42   20   21 2    
    43   20   22 1    
    44   22   23 1    
    45   22   24 1    
    46   22   80 1    
    47   23   81 1    
    48   23   82 1    
    49   23   83 1    
    50   24   25 am   BACKBONE|DICT|INTERRES
    51   24   84 1    
    52   25   26 2    
    53   27   28 2    
    54   27   29 am   BACKBONE|DICT|INTERRES
    55   29   30 1    
    56   29   85 1    
    57   30   31 1    
    58   30   32 1    
    59   30   86 1    
    60   31   87 1    
    61   31   88 1    
    62   31   89 1    
    63   32   33 2    
    64   32   34 am   BACKBONE|DICT|INTERRES
    65   34   35 1    
    66   34   90 1    
    67   35   36 1    
    68   35   37 1    
    69   35   91 1    
    70   36   92 1    
    71   36   93 1    
    72   36   94 1    
    73   37   38 2    
    74   37   39 am   BACKBONE|DICT|INTERRES
    75   39   40 1    
    76   39   95 1    
    77   40   41 1    
    78   40   42 1    
    79   40   96 1    
    80   41   97 1    
    81   41   98 1    
    82   41   99 1    
    83   42   43 2    
    84   42   44 am   BACKBONE|DICT|INTERRES
    85   44   45 1    
    86   44  100 1    
    87   45   46 1    
    88   45   47 1    
    89   45  101 1    
    90   46  102 1    
    91   46  103 1    
    92   46  104 1    
    93   47   48 2    
    94   47   49 am   BACKBONE|DICT|INTERRES
    95   49   50 1    
    96   49  105 1    
    97   50   51 1    
    98   50   52 1    
    99   50  106 1    
   100   51  107 1    
   101   51  108 1    
   102   51  109 1    
   103   52   53 2    
   104   52   54 am   BACKBONE|DICT|INTERRES
   105   54   55 1    
   106   54  110 1    
   107   55   56 1    
   108   55   59 1    
   109   55  111 1    
   110   56   57 am   BACKBONE|DICT|INTERRES
   111   56   58 2    
   112   57  112 1    
   113   57  113 1    
   114   59   60 1    
   115   59  114 1    
   116   59  115 1    
   117   60   61 1    
   118   61  116 1    
   119   61  117 1    
@<TRIPOS>SUBSTRUCTURE
     1 UNK         1 GROUP             0       ****    0 ROOT    
