@<TRIPOS>MOLECULE
3R8
117   119    1
SMALL
USER_CHARGES


@<TRIPOS>ATOM
      1 CA         15.8307  -22.2693  -41.9451 C.3       0 UNK        -0.2013 
      2 C          15.7502  -22.9426  -43.3069 C.2       0 UNK         0.4866 
      3 O          15.2190  -22.3553  -44.2495 O.2       0 UNK        -0.5176 
      4 N          16.2744  -24.1710  -43.4189 N.am      1 UNK        -0.4884 
      5 CA         16.2868  -24.9634  -44.6572 C.3       1 UNK         0.0853 
      6 C6         16.4739  -26.4745  -44.3488 C.3       10 UNK        -0.0849 
      7 S7         15.7638  -27.5540  -45.6399 S.3       10 UNK        -0.2776 
      8 C8         15.5860  -29.1442  -44.7604 C.3       10 UNK         0.0316 
      9 C9         16.9123  -29.6651  -44.2202 C.ar      10 UNK        -0.0863 
     10 C10        17.0655  -29.9157  -42.8517 C.ar      10 UNK        -0.1009 
     11 C11        18.2913  -30.3588  -42.3476 C.ar      10 UNK        -0.0712 
     12 C12        19.3665  -30.5338  -43.2202 C.ar      10 UNK        -0.0894 
     13 C13        19.2353  -30.2847  -44.5874 C.ar      10 UNK        -0.0745 
     14 C14        17.9912  -29.8812  -45.0854 C.ar      10 UNK        -0.0972 
     15 C15        20.4608  -30.4220  -45.4915 C.3       10 UNK         0.0209 
     16 S16        20.6397  -29.0984  -46.7423 S.3       10 UNK        -0.2568 
     17 C17        20.2796  -27.5824  -45.7921 C.3       10 UNK        -0.0983 
     18 CA         21.3998  -26.5136  -45.8457 C.3       3 UNK         0.0876 
     19 N          20.8244  -25.1957  -45.6035 N.am      3 UNK        -0.4424 
     20 C          20.3256  -24.3747  -46.5302 C.2       2 UNK         0.4918 
     21 O          20.4347  -24.5525  -47.7448 O.2       2 UNK        -0.4875 
     22 CA         19.5006  -23.1994  -45.9734 C.3       2 UNK         0.0481 
     23 CB         19.0794  -22.1827  -47.0556 C.3       2 UNK        -0.1831 
     24 N          18.3367  -23.6954  -45.2209 N.am      2 UNK        -0.4498 
     25 C          17.3243  -24.4512  -45.6871 C.2       1 UNK         0.5027 
     26 O          17.1837  -24.7482  -46.8739 O.2       1 UNK        -0.4969 
     27 C          22.4851  -26.7611  -44.7827 C.2       3 UNK         0.5005 
     28 O          22.5355  -26.0402  -43.7797 O.2       3 UNK        -0.5279 
     29 N          23.3109  -27.7967  -44.9845 N.am      4 UNK        -0.4463 
     30 CA         24.3804  -28.2343  -44.0762 C.3       4 UNK         0.0283 
     31 CB         25.3818  -29.0989  -44.8648 C.3       4 UNK        -0.1875 
     32 C          23.8422  -28.9626  -42.8260 C.2       4 UNK         0.4949 
     33 O          24.2787  -30.0731  -42.5178 O.2       4 UNK        -0.5039 
     34 N          22.8926  -28.3273  -42.1283 N.am      5 UNK        -0.4663 
     35 CA         22.1322  -28.8642  -40.9964 C.3       5 UNK         0.0242 
     36 CB         21.1195  -27.8105  -40.5221 C.3       5 UNK        -0.1982 
     37 C          22.9875  -29.3626  -39.8246 C.2       5 UNK         0.5017 
     38 O          22.6347  -30.3713  -39.2146 O.2       5 UNK        -0.5012 
     39 N          24.1146  -28.6863  -39.5675 N.am      6 UNK        -0.4439 
     40 CA         25.0933  -29.0487  -38.5385 C.3       6 UNK         0.0297 
     41 CB         26.1485  -27.9360  -38.4318 C.3       6 UNK        -0.2006 
     42 C          25.7736  -30.4125  -38.7686 C.2       6 UNK         0.4892 
     43 O          26.2192  -31.0240  -37.7970 O.2       6 UNK        -0.5089 
     44 N          25.8412  -30.8593  -40.0300 N.am      7 UNK        -0.4243 
     45 CA         26.3839  -32.1585  -40.4222 C.3       7 UNK         0.0196 
     46 CB         27.2949  -31.9766  -41.6484 C.3       7 UNK        -0.2007 
     47 C          25.2597  -33.1558  -40.7331 C.2       7 UNK         0.5020 
     48 O          25.3384  -34.3074  -40.3056 O.2       7 UNK        -0.5147 
     49 N          24.2511  -32.7107  -41.4943 N.am      8 UNK        -0.4734 
     50 CA         23.1812  -33.5582  -42.0224 C.3       8 UNK         0.0238 
     51 CB         22.5418  -32.8605  -43.2320 C.3       8 UNK        -0.1912 
     52 C          22.1173  -33.9614  -40.9879 C.2       8 UNK         0.5038 
     53 O          21.5922  -35.0710  -41.0948 O.2       8 UNK        -0.5046 
     54 N          21.8172  -33.0808  -40.0241 N.am      9 UNK        -0.4200 
     55 CA         20.8529  -33.3304  -38.9378 C.3       9 UNK         0.0839 
     56 C          21.5450  -33.3400  -37.5507 C.2       9 UNK         0.5513 
     57 N          22.5017  -32.4573  -37.2931 N.am      9 UNK        -0.7519 
     58 O          21.2162  -34.1642  -36.7014 O.2       9 UNK        -0.4960 
     59 C59        19.6632  -32.3327  -38.9484 C.3       10 UNK        -0.0876 
     60 S60        18.7101  -32.3852  -40.5073 S.3       10 UNK        -0.2414 
     61 C61        18.4846  -30.6138  -40.8603 C.3       10 UNK         0.0169 
     62 H62        16.3891  -21.3365  -42.0200 H         1 UNK         0.0903 
     63 H63        14.8297  -22.0384  -41.5816 H         1 UNK         0.0903 
     64 H64        16.3223  -22.9004  -41.2050 H         1 UNK         0.0903 
     65 H65        16.6906  -24.6081  -42.6080 H         1 UNK         0.3096 
     66 H66        15.3059  -24.8360  -45.1221 H         1 UNK         0.1121 
     67 H67        17.5259  -26.7276  -44.2002 H         1 UNK         0.0849 
     68 H68        15.9718  -26.7269  -43.4132 H         1 UNK         0.0849 
     69 H69        14.8562  -29.0249  -43.9580 H         1 UNK         0.0865 
     70 H70        15.1688  -29.8830  -45.4460 H         1 UNK         0.0865 
     71 H71        16.2352  -29.7573  -42.1771 H         1 UNK         0.1346 
     72 H72        20.3118  -30.8617  -42.8219 H         1 UNK         0.1412 
     73 H73        17.8740  -29.6835  -46.1422 H         1 UNK         0.1426 
     74 H74        20.4174  -31.3854  -46.0008 H         1 UNK         0.0716 
     75 H75        21.3719  -30.4313  -44.8912 H         1 UNK         0.0716 
     76 H76        19.3607  -27.1844  -46.2275 H         1 UNK         0.0695 
     77 H77        20.0240  -27.8103  -44.7563 H         1 UNK         0.0695 
     78 H78        21.8799  -26.5169  -46.8270 H         1 UNK         0.0983 
     79 H79        20.7864  -24.9371  -44.6262 H         1 UNK         0.3095 
     80 H80        20.1362  -22.6735  -45.2592 H         1 UNK         0.0454 
     81 H81        18.4661  -22.6386  -47.8332 H         1 UNK         0.0851 
     82 H82        18.5130  -21.3575  -46.6244 H         1 UNK         0.0851 
     83 H83        19.9545  -21.7551  -47.5459 H         1 UNK         0.0851 
     84 H84        18.3398  -23.4994  -44.2299 H         1 UNK         0.2976 
     85 H85        23.1633  -28.3670  -45.8060 H         1 UNK         0.3116 
     86 H86        24.9140  -27.3499  -43.7220 H         1 UNK         0.0646 
     87 H87        24.9192  -30.0137  -45.2377 H         1 UNK         0.0847 
     88 H88        26.2240  -29.3937  -44.2371 H         1 UNK         0.0847 
     89 H89        25.7922  -28.5569  -45.7169 H         1 UNK         0.0847 
     90 H90        22.6204  -27.4088  -42.4710 H         1 UNK         0.3040 
     91 H91        21.5833  -29.7309  -41.3620 H         1 UNK         0.1015 
     92 H92        20.3910  -27.5848  -41.3015 H         1 UNK         0.0786 
     93 H93        21.6102  -26.8779  -40.2410 H         1 UNK         0.0786 
     94 H94        20.5636  -28.1591  -39.6504 H         1 UNK         0.0786 
     95 H95        24.3203  -27.8773  -40.1359 H         1 UNK         0.3172 
     96 H96        24.5621  -29.1082  -37.5861 H         1 UNK         0.0595 
     97 H97        25.6937  -26.9784  -38.1777 H         1 UNK         0.0839 
     98 H98        26.7004  -27.8111  -39.3644 H         1 UNK         0.0839 
     99 H99        26.8766  -28.1626  -37.6514 H         1 UNK         0.0839 
    100 H100       25.4117  -30.3092  -40.7646 H         1 UNK         0.2998 
    101 H101       26.9883  -32.5786  -39.6152 H         1 UNK         0.0822 
    102 H102       28.1329  -31.3171  -41.4224 H         1 UNK         0.0787 
    103 H103       27.7118  -32.9320  -41.9698 H         1 UNK         0.0787 
    104 H104       26.7562  -31.5527  -42.4972 H         1 UNK         0.0787 
    105 H105       24.2755  -31.7501  -41.8316 H         1 UNK         0.3055 
    106 H106       23.6330  -34.4867  -42.3800 H         1 UNK         0.1106 
    107 H107       22.2347  -31.8475  -42.9833 H         1 UNK         0.0828 
    108 H108       23.2434  -32.7948  -44.0637 H         1 UNK         0.0828 
    109 H109       21.6629  -33.3997  -43.5888 H         1 UNK         0.0828 
    110 H110       22.3160  -32.2004  -39.9750 H         1 UNK         0.2931 
    111 H111       20.4209  -34.3259  -39.0575 H         1 UNK         0.0412 
    112 H112       22.9593  -32.4700  -36.3958 H         1 UNK         0.3472 
    113 H113       22.7094  -31.7195  -37.9600 H         1 UNK         0.3472 
    114 H114       20.0246  -31.3200  -38.7621 H         1 UNK         0.0970 
    115 H115       18.9722  -32.5586  -38.1340 H         1 UNK         0.0970 
    116 H116       17.6373  -30.2400  -40.2836 H         1 UNK         0.0612 
    117 H117       19.3562  -30.0552  -40.5250 H         1 UNK         0.0612 
@<TRIPOS>BOND
     1    1    2 1    
     2    1   62 1    
     3    1   63 1    
     4    1   64 1    
     5    2    3 2    
     6    2    4 am   BACKBONE|DICT|INTERRES
     7    4    5 1    
     8    4   65 1    
     9    5    6 1    
    10    5   25 1    
    11    5   66 1    
    12    6    7 1    
    13    6   67 1    
    14    6   68 1    
    15    7    8 1    
    16    8    9 1    
    17    8   69 1    
    18    8   70 1    
    19    9   10 ar   
    20    9   14 ar   
    21   10   11 ar   
    22   10   71 1    
    23   11   12 ar   
    24   11   61 1    
    25   12   13 ar   
    26   12   72 1    
    27   13   14 ar   
    28   13   15 1    
    29   14   73 1    
    30   15   16 1    
    31   15   74 1    
    32   15   75 1    
    33   16   17 1    
    34   17   18 1    
    35   17   76 1    
    36   17   77 1    
    37   18   19 1    
    38   18   27 1    
    39   18   78 1    
    40   19   20 am   BACKBONE|DICT|INTERRES
    41   19   79 1    
    42   20   21 2    
    43   20   22 1    
    44   22   23 1    
    45   22   24 1    
    46   22   80 1    
    47   23   81 1    
    48   23   82 1    
    49   23   83 1    
    50   24   25 am   BACKBONE|DICT|INTERRES
    51   24   84 1    
    52   25   26 2    
    53   27   28 2    
    54   27   29 am   BACKBONE|DICT|INTERRES
    55   29   30 1    
    56   29   85 1    
    57   30   31 1    
    58   30   32 1    
    59   30   86 1    
    60   31   87 1    
    61   31   88 1    
    62   31   89 1    
    63   32   33 2    
    64   32   34 am   BACKBONE|DICT|INTERRES
    65   34   35 1    
    66   34   90 1    
    67   35   36 1    
    68   35   37 1    
    69   35   91 1    
    70   36   92 1    
    71   36   93 1    
    72   36   94 1    
    73   37   38 2    
    74   37   39 am   BACKBONE|DICT|INTERRES
    75   39   40 1    
    76   39   95 1    
    77   40   41 1    
    78   40   42 1    
    79   40   96 1    
    80   41   97 1    
    81   41   98 1    
    82   41   99 1    
    83   42   43 2    
    84   42   44 am   BACKBONE|DICT|INTERRES
    85   44   45 1    
    86   44  100 1    
    87   45   46 1    
    88   45   47 1    
    89   45  101 1    
    90   46  102 1    
    91   46  103 1    
    92   46  104 1    
    93   47   48 2    
    94   47   49 am   BACKBONE|DICT|INTERRES
    95   49   50 1    
    96   49  105 1    
    97   50   51 1    
    98   50   52 1    
    99   50  106 1    
   100   51  107 1    
   101   51  108 1    
   102   51  109 1    
   103   52   53 2    
   104   52   54 am   BACKBONE|DICT|INTERRES
   105   54   55 1    
   106   54  110 1    
   107   55   56 1    
   108   55   59 1    
   109   55  111 1    
   110   56   57 am   BACKBONE|DICT|INTERRES
   111   56   58 2    
   112   57  112 1    
   113   57  113 1    
   114   59   60 1    
   115   59  114 1    
   116   59  115 1    
   117   60   61 1    
   118   61  116 1    
   119   61  117 1    
@<TRIPOS>SUBSTRUCTURE
     1 UNK         1 GROUP             0       ****    0 ROOT    
