@<TRIPOS>MOLECULE
3R8
117   119    1
SMALL
USER_CHARGES


@<TRIPOS>ATOM
      1 CA         17.9980  -27.7900  -41.2398 C.3       0 UNK        -0.2013 
      2 C          18.0264  -27.1666  -42.6261 C.2       0 UNK         0.4866 
      3 O          19.0355  -27.2767  -43.3207 O.2       0 UNK        -0.5176 
      4 N          16.9337  -26.4999  -43.0233 N.am      1 UNK        -0.4884 
      5 CA         16.7268  -25.8571  -44.3316 C.3       1 UNK         0.0853 
      6 C6         16.4895  -26.8825  -45.4799 C.3       10 UNK        -0.0849 
      7 S7         15.1282  -28.0473  -45.1254 S.3       10 UNK        -0.2776 
      8 C8         15.7404  -29.5896  -45.8848 C.3       10 UNK         0.0316 
      9 C9         17.0155  -30.1018  -45.2268 C.ar      10 UNK        -0.0863 
     10 C10        16.9838  -30.5878  -43.9159 C.ar      10 UNK        -0.1009 
     11 C11        18.1522  -31.0520  -43.3057 C.ar      10 UNK        -0.0712 
     12 C12        19.3568  -31.0253  -44.0128 C.ar      10 UNK        -0.0894 
     13 C13        19.3994  -30.5640  -45.3309 C.ar      10 UNK        -0.0745 
     14 C14        18.2241  -30.1040  -45.9332 C.ar      10 UNK        -0.0972 
     15 C15        20.7065  -30.6026  -46.1131 C.3       10 UNK         0.0209 
     16 S16        21.3427  -28.9443  -46.5122 S.3       10 UNK        -0.2568 
     17 C17        21.8437  -28.3365  -44.8677 C.3       10 UNK        -0.0983 
     18 CA         22.0823  -26.8054  -44.8623 C.3       3 UNK         0.0876 
     19 N          20.9181  -26.0488  -45.3368 N.am      3 UNK        -0.4424 
     20 C          20.9523  -24.7795  -45.7697 C.2       2 UNK         0.4918 
     21 O          21.9853  -24.1128  -45.8382 O.2       2 UNK        -0.4875 
     22 CA         19.6278  -24.1382  -46.2302 C.3       2 UNK         0.0481 
     23 CB         19.6187  -23.9753  -47.7592 C.3       2 UNK        -0.1831 
     24 N          18.4494  -24.9101  -45.8314 N.am      2 UNK        -0.4498 
     25 C          17.8490  -24.8319  -44.6350 C.2       1 UNK         0.5027 
     26 O          18.1610  -24.0075  -43.7722 O.2       1 UNK        -0.4969 
     27 C          22.5091  -26.3071  -43.4697 C.2       3 UNK         0.5005 
     28 O          23.6949  -26.0496  -43.2530 O.2       3 UNK        -0.5279 
     29 N          21.5174  -26.1330  -42.5813 N.am      4 UNK        -0.4463 
     30 CA         21.5755  -25.4828  -41.2687 C.3       4 UNK         0.0283 
     31 CB         21.5741  -23.9496  -41.4542 C.3       4 UNK        -0.1875 
     32 C          22.7297  -26.0008  -40.3909 C.2       4 UNK         0.4949 
     33 O          22.6259  -27.1007  -39.8480 O.2       4 UNK        -0.5039 
     34 N          23.8168  -25.2218  -40.2963 N.am      5 UNK        -0.4663 
     35 CA         25.0392  -25.5300  -39.5474 C.3       5 UNK         0.0242 
     36 CB         25.9750  -24.3113  -39.5970 C.3       5 UNK        -0.1982 
     37 C          25.7809  -26.7970  -40.0151 C.2       5 UNK         0.5017 
     38 O          26.5478  -27.3559  -39.2302 O.2       5 UNK        -0.5012 
     39 N          25.5334  -27.2473  -41.2555 N.am      6 UNK        -0.4439 
     40 CA         26.0281  -28.5247  -41.7807 C.3       6 UNK         0.0297 
     41 CB         25.8900  -28.5394  -43.3110 C.3       6 UNK        -0.2006 
     42 C          25.3324  -29.7554  -41.1624 C.2       6 UNK         0.4892 
     43 O          25.8681  -30.8571  -41.2876 O.2       6 UNK        -0.5089 
     44 N          24.1787  -29.5505  -40.5051 N.am      7 UNK        -0.4243 
     45 CA         23.3393  -30.5347  -39.8186 C.3       7 UNK         0.0196 
     46 CB         24.0730  -31.1669  -38.6150 C.3       7 UNK        -0.2007 
     47 C          22.7392  -31.5705  -40.7813 C.2       7 UNK         0.5020 
     48 O          21.6272  -31.3624  -41.2624 O.2       7 UNK        -0.5147 
     49 N          23.4575  -32.6777  -41.0131 N.am      8 UNK        -0.4734 
     50 CA         23.1190  -33.8525  -41.8342 C.3       8 UNK         0.0238 
     51 CB         22.8844  -33.4690  -43.3083 C.3       8 UNK        -0.1912 
     52 C          21.9611  -34.7108  -41.2880 C.2       8 UNK         0.5038 
     53 O          22.0766  -35.9370  -41.2963 O.2       8 UNK        -0.5046 
     54 N          20.8897  -34.0712  -40.8049 N.am      9 UNK        -0.4200 
     55 CA         19.7362  -34.7149  -40.1525 C.3       9 UNK         0.0839 
     56 C          20.0125  -35.2140  -38.7034 C.2       9 UNK         0.5513 
     57 N          21.1415  -34.8869  -38.0852 N.am      9 UNK        -0.7519 
     58 O          19.1855  -35.9188  -38.1305 O.2       9 UNK        -0.4960 
     59 C59        18.4666  -33.8226  -40.1957 C.3       10 UNK        -0.0876 
     60 S60        17.9635  -33.4066  -41.8993 S.3       10 UNK        -0.2414 
     61 C61        18.1224  -31.5956  -41.8880 C.3       10 UNK         0.0169 
     62 H62        18.5784  -28.7121  -41.2320 H         1 UNK         0.0903 
     63 H63        18.4344  -27.1083  -40.5107 H         1 UNK         0.0903 
     64 H64        16.9813  -28.0288  -40.9287 H         1 UNK         0.0903 
     65 H65        16.1530  -26.4227  -42.3868 H         1 UNK         0.3096 
     66 H66        15.8168  -25.2629  -44.2337 H         1 UNK         0.1121 
     67 H67        17.4036  -27.4451  -45.6717 H         1 UNK         0.0849 
     68 H68        16.2351  -26.3706  -46.4098 H         1 UNK         0.0849 
     69 H69        14.9664  -30.3541  -45.8032 H         1 UNK         0.0865 
     70 H70        15.8921  -29.4249  -46.9528 H         1 UNK         0.0865 
     71 H71        16.0497  -30.6002  -43.3712 H         1 UNK         0.1346 
     72 H72        20.2581  -31.3806  -43.5352 H         1 UNK         0.1412 
     73 H73        18.2565  -29.7443  -46.9526 H         1 UNK         0.1426 
     74 H74        21.4728  -31.1557  -45.5672 H         1 UNK         0.0716 
     75 H75        20.5437  -31.1472  -47.0440 H         1 UNK         0.0716 
     76 H76        21.0806  -28.6141  -44.1398 H         1 UNK         0.0695 
     77 H77        22.7491  -28.8692  -44.5749 H         1 UNK         0.0695 
     78 H78        22.9115  -26.5990  -45.5430 H         1 UNK         0.0983 
     79 H79        20.0274  -26.5184  -45.2462 H         1 UNK         0.3095 
     80 H80        19.5722  -23.1426  -45.7849 H         1 UNK         0.0454 
     81 H81        19.6872  -24.9367  -48.2699 H         1 UNK         0.0851 
     82 H82        18.7116  -23.4763  -48.1005 H         1 UNK         0.0851 
     83 H83        20.4628  -23.3698  -48.0926 H         1 UNK         0.0851 
     84 H84        18.1285  -25.6052  -46.4895 H         1 UNK         0.2976 
     85 H85        20.5939  -26.4613  -42.8640 H         1 UNK         0.3116 
     86 H86        20.6543  -25.7515  -40.7500 H         1 UNK         0.0646 
     87 H87        22.4104  -23.6047  -42.0634 H         1 UNK         0.0847 
     88 H88        20.6583  -23.6216  -41.9472 H         1 UNK         0.0847 
     89 H89        21.6211  -23.4332  -40.4943 H         1 UNK         0.0847 
     90 H90        23.8190  -24.3578  -40.8190 H         1 UNK         0.3040 
     91 H91        24.7501  -25.6996  -38.5079 H         1 UNK         0.1015 
     92 H92        26.2771  -24.0767  -40.6185 H         1 UNK         0.0786 
     93 H93        26.8843  -24.4923  -39.0218 H         1 UNK         0.0786 
     94 H94        25.4989  -23.4263  -39.1741 H         1 UNK         0.0786 
     95 H95        24.8969  -26.7207  -41.8505 H         1 UNK         0.3172 
     96 H96        27.0908  -28.5992  -41.5407 H         1 UNK         0.0595 
     97 H97        26.3224  -29.4475  -43.7332 H         1 UNK         0.0839 
     98 H98        26.4044  -27.6930  -43.7663 H         1 UNK         0.0839 
     99 H99        24.8466  -28.5037  -43.6201 H         1 UNK         0.0839 
    100 H100       23.8173  -28.6022  -40.4676 H         1 UNK         0.2998 
    101 H101       22.4952  -29.9717  -39.4161 H         1 UNK         0.0822 
    102 H102       23.4326  -31.8848  -38.1008 H         1 UNK         0.0787 
    103 H103       24.9855  -31.6892  -38.9024 H         1 UNK         0.0787 
    104 H104       24.3495  -30.4048  -37.8862 H         1 UNK         0.0787 
    105 H105       24.3736  -32.7090  -40.5845 H         1 UNK         0.3055 
    106 H106       24.0063  -34.4877  -41.8065 H         1 UNK         0.1106 
    107 H107       23.7257  -32.9043  -43.7101 H         1 UNK         0.0828 
    108 H108       22.7657  -34.3598  -43.9264 H         1 UNK         0.0828 
    109 H109       21.9856  -32.8682  -43.4365 H         1 UNK         0.0828 
    110 H110       20.8813  -33.0575  -40.8679 H         1 UNK         0.2931 
    111 H111       19.5092  -35.6146  -40.7279 H         1 UNK         0.0412 
    112 H112       21.3066  -35.2218  -37.1487 H         1 UNK         0.3472 
    113 H113       21.8310  -34.3179  -38.5481 H         1 UNK         0.3472 
    114 H114       17.6236  -34.3361  -39.7291 H         1 UNK         0.0970 
    115 H115       18.6204  -32.9119  -39.6142 H         1 UNK         0.0970 
    116 H116       17.2928  -31.1630  -41.3268 H         1 UNK         0.0612 
    117 H117       19.0338  -31.3042  -41.3665 H         1 UNK         0.0612 
@<TRIPOS>BOND
     1    1    2 1    
     2    1   62 1    
     3    1   63 1    
     4    1   64 1    
     5    2    3 2    
     6    2    4 am   BACKBONE|DICT|INTERRES
     7    4    5 1    
     8    4   65 1    
     9    5    6 1    
    10    5   25 1    
    11    5   66 1    
    12    6    7 1    
    13    6   67 1    
    14    6   68 1    
    15    7    8 1    
    16    8    9 1    
    17    8   69 1    
    18    8   70 1    
    19    9   10 ar   
    20    9   14 ar   
    21   10   11 ar   
    22   10   71 1    
    23   11   12 ar   
    24   11   61 1    
    25   12   13 ar   
    26   12   72 1    
    27   13   14 ar   
    28   13   15 1    
    29   14   73 1    
    30   15   16 1    
    31   15   74 1    
    32   15   75 1    
    33   16   17 1    
    34   17   18 1    
    35   17   76 1    
    36   17   77 1    
    37   18   19 1    
    38   18   27 1    
    39   18   78 1    
    40   19   20 am   BACKBONE|DICT|INTERRES
    41   19   79 1    
    42   20   21 2    
    43   20   22 1    
    44   22   23 1    
    45   22   24 1    
    46   22   80 1    
    47   23   81 1    
    48   23   82 1    
    49   23   83 1    
    50   24   25 am   BACKBONE|DICT|INTERRES
    51   24   84 1    
    52   25   26 2    
    53   27   28 2    
    54   27   29 am   BACKBONE|DICT|INTERRES
    55   29   30 1    
    56   29   85 1    
    57   30   31 1    
    58   30   32 1    
    59   30   86 1    
    60   31   87 1    
    61   31   88 1    
    62   31   89 1    
    63   32   33 2    
    64   32   34 am   BACKBONE|DICT|INTERRES
    65   34   35 1    
    66   34   90 1    
    67   35   36 1    
    68   35   37 1    
    69   35   91 1    
    70   36   92 1    
    71   36   93 1    
    72   36   94 1    
    73   37   38 2    
    74   37   39 am   BACKBONE|DICT|INTERRES
    75   39   40 1    
    76   39   95 1    
    77   40   41 1    
    78   40   42 1    
    79   40   96 1    
    80   41   97 1    
    81   41   98 1    
    82   41   99 1    
    83   42   43 2    
    84   42   44 am   BACKBONE|DICT|INTERRES
    85   44   45 1    
    86   44  100 1    
    87   45   46 1    
    88   45   47 1    
    89   45  101 1    
    90   46  102 1    
    91   46  103 1    
    92   46  104 1    
    93   47   48 2    
    94   47   49 am   BACKBONE|DICT|INTERRES
    95   49   50 1    
    96   49  105 1    
    97   50   51 1    
    98   50   52 1    
    99   50  106 1    
   100   51  107 1    
   101   51  108 1    
   102   51  109 1    
   103   52   53 2    
   104   52   54 am   BACKBONE|DICT|INTERRES
   105   54   55 1    
   106   54  110 1    
   107   55   56 1    
   108   55   59 1    
   109   55  111 1    
   110   56   57 am   BACKBONE|DICT|INTERRES
   111   56   58 2    
   112   57  112 1    
   113   57  113 1    
   114   59   60 1    
   115   59  114 1    
   116   59  115 1    
   117   60   61 1    
   118   61  116 1    
   119   61  117 1    
@<TRIPOS>SUBSTRUCTURE
     1 UNK         1 GROUP             0       ****    0 ROOT    
