@<TRIPOS>MOLECULE
3R8
117   119    1
SMALL
USER_CHARGES


@<TRIPOS>ATOM
      1 CA         14.4448  -24.0559  -47.0731 C.3       0 UNK        -0.2013 
      2 C          15.4995  -24.9733  -47.6728 C.2       0 UNK         0.4866 
      3 O          15.6239  -25.0484  -48.8954 O.2       0 UNK        -0.5176 
      4 N          16.2614  -25.6668  -46.8186 N.am      1 UNK        -0.4884 
      5 CA         17.3573  -26.5566  -47.2116 C.3       1 UNK         0.0853 
      6 C6         17.6856  -27.6196  -46.1319 C.3       10 UNK        -0.0849 
      7 S7         16.2730  -28.7225  -45.7824 S.3       10 UNK        -0.2776 
      8 C8         15.7888  -28.2293  -44.0898 C.3       10 UNK         0.0316 
      9 C9         16.8658  -28.4954  -43.0402 C.ar      10 UNK        -0.0863 
     10 C10        17.5541  -29.7133  -43.0075 C.ar      10 UNK        -0.1009 
     11 C11        18.5605  -29.9425  -42.0648 C.ar      10 UNK        -0.0712 
     12 C12        18.8634  -28.9459  -41.1315 C.ar      10 UNK        -0.0894 
     13 C13        18.1767  -27.7277  -41.1437 C.ar      10 UNK        -0.0745 
     14 C14        17.1700  -27.5142  -42.0912 C.ar      10 UNK        -0.0972 
     15 C15        18.5429  -26.6332  -40.1500 C.3       10 UNK         0.0209 
     16 S16        20.2185  -25.9777  -40.4458 S.3       10 UNK        -0.2568 
     17 C17        20.0082  -25.0016  -41.9757 C.3       10 UNK        -0.0983 
     18 CA         20.0508  -25.8211  -43.2963 C.3       3 UNK         0.0876 
     19 N          19.8094  -24.9970  -44.4736 N.am      3 UNK        -0.4424 
     20 C          18.6290  -24.4719  -44.8175 C.2       2 UNK         0.4918 
     21 O          17.5994  -24.5823  -44.1519 O.2       2 UNK        -0.4875 
     22 CA         18.5662  -23.7720  -46.1807 C.3       2 UNK         0.0481 
     23 CB         19.3791  -22.4668  -46.1558 C.3       2 UNK        -0.1831 
     24 N          19.0438  -24.6245  -47.2770 N.am      2 UNK        -0.4498 
     25 C          18.6367  -25.8335  -47.7182 C.2       1 UNK         0.5027 
     26 O          19.2893  -26.4064  -48.5892 O.2       1 UNK        -0.4969 
     27 C          21.3614  -26.5921  -43.5200 C.2       3 UNK         0.5005 
     28 O          22.2442  -26.1043  -44.2316 O.2       3 UNK        -0.5279 
     29 N          21.4492  -27.7833  -42.9178 N.am      4 UNK        -0.4463 
     30 CA         22.5931  -28.6903  -42.9768 C.3       4 UNK         0.0283 
     31 CB         22.3930  -29.7103  -44.1143 C.3       4 UNK        -0.1875 
     32 C          22.8285  -29.3407  -41.6038 C.2       4 UNK         0.4949 
     33 O          23.1143  -30.5356  -41.5234 O.2       4 UNK        -0.5039 
     34 N          22.7201  -28.5430  -40.5313 N.am      5 UNK        -0.4663 
     35 CA         22.9822  -28.9595  -39.1446 C.3       5 UNK         0.0242 
     36 CB         22.4922  -27.8662  -38.1826 C.3       5 UNK        -0.1982 
     37 C          24.4544  -29.3155  -38.8609 C.2       5 UNK         0.5017 
     38 O          24.7299  -30.0210  -37.8913 O.2       5 UNK        -0.5012 
     39 N          25.3671  -28.8388  -39.7164 N.am      6 UNK        -0.4439 
     40 CA         26.7892  -29.1848  -39.7094 C.3       6 UNK         0.0297 
     41 CB         27.5853  -27.9904  -40.2642 C.3       6 UNK        -0.2006 
     42 C          27.1046  -30.4649  -40.5114 C.2       6 UNK         0.4892 
     43 O          28.2672  -30.8722  -40.5324 O.2       6 UNK        -0.5089 
     44 N          26.1030  -31.0581  -41.1769 N.am      7 UNK        -0.4243 
     45 CA         26.2537  -32.2075  -42.0641 C.3       7 UNK         0.0196 
     46 CB         26.3686  -31.7165  -43.5230 C.3       7 UNK        -0.2007 
     47 C          25.1041  -33.1931  -41.8160 C.2       7 UNK         0.5020 
     48 O          25.1388  -33.9083  -40.8147 O.2       7 UNK        -0.5147 
     49 N          24.1172  -33.2229  -42.7228 N.am      8 UNK        -0.4734 
     50 CA         22.9939  -34.1684  -42.7649 C.3       8 UNK         0.0238 
     51 CB         22.0963  -33.8257  -43.9655 C.3       8 UNK        -0.1912 
     52 C          22.1469  -34.2588  -41.4827 C.2       8 UNK         0.5038 
     53 O          21.6584  -35.3466  -41.1727 O.2       8 UNK        -0.5046 
     54 N          21.9984  -33.1365  -40.7706 N.am      9 UNK        -0.4200 
     55 CA         21.3019  -33.0457  -39.4763 C.3       9 UNK         0.0839 
     56 C          22.2828  -32.8363  -38.2867 C.2       9 UNK         0.5513 
     57 N          23.5861  -33.0258  -38.4528 N.am      9 UNK        -0.7519 
     58 O          21.8550  -32.5052  -37.1841 O.2       9 UNK        -0.4960 
     59 C59        20.1715  -31.9809  -39.5025 C.3       10 UNK        -0.0876 
     60 S60        18.8731  -32.3617  -40.7283 S.3       10 UNK        -0.2414 
     61 C61        19.3361  -31.2530  -42.0921 C.3       10 UNK         0.0169 
     62 H62        13.4513  -24.3633  -47.3984 H         1 UNK         0.0903 
     63 H63        14.4648  -24.0693  -45.9833 H         1 UNK         0.0903 
     64 H64        14.6095  -23.0301  -47.4018 H         1 UNK         0.0903 
     65 H65        16.1339  -25.5452  -45.8232 H         1 UNK         0.3096 
     66 H66        16.9954  -27.1151  -48.0787 H         1 UNK         0.1121 
     67 H67        18.5113  -28.2537  -46.4611 H         1 UNK         0.0849 
     68 H68        18.0196  -27.1568  -45.2069 H         1 UNK         0.0849 
     69 H69        15.5123  -27.1738  -44.1009 H         1 UNK         0.0865 
     70 H70        14.8893  -28.7788  -43.8095 H         1 UNK         0.0865 
     71 H71        17.3170  -30.4795  -43.7330 H         1 UNK         0.1346 
     72 H72        19.6415  -29.1047  -40.3991 H         1 UNK         0.1412 
     73 H73        16.6453  -26.5679  -42.1097 H         1 UNK         0.1426 
     74 H74        18.5004  -27.0437  -39.1402 H         1 UNK         0.0716 
     75 H75        17.8218  -25.8148  -40.1787 H         1 UNK         0.0716 
     76 H76        19.0640  -24.4616  -41.8961 H         1 UNK         0.0695 
     77 H77        20.7850  -24.2351  -41.9915 H         1 UNK         0.0695 
     78 H78        19.2594  -26.5645  -43.2839 H         1 UNK         0.0983 
     79 H79        20.6127  -24.9047  -45.0835 H         1 UNK         0.3095 
     80 H80        17.5353  -23.4814  -46.3759 H         1 UNK         0.0454 
     81 H81        20.4455  -22.6465  -46.0150 H         1 UNK         0.0851 
     82 H82        19.2553  -21.9064  -47.0828 H         1 UNK         0.0851 
     83 H83        19.0491  -21.8171  -45.3438 H         1 UNK         0.0851 
     84 H84        19.8662  -24.2623  -47.7364 H         1 UNK         0.2976 
     85 H85        20.6757  -28.0868  -42.3394 H         1 UNK         0.3116 
     86 H86        23.4994  -28.1206  -43.1918 H         1 UNK         0.0646 
     87 H87        21.4774  -30.2863  -43.9883 H         1 UNK         0.0847 
     88 H88        23.2215  -30.4161  -44.1669 H         1 UNK         0.0847 
     89 H89        22.3374  -29.2113  -45.0818 H         1 UNK         0.0847 
     90 H90        22.4704  -27.5732  -40.6725 H         1 UNK         0.3040 
     91 H91        22.4078  -29.8640  -38.9451 H         1 UNK         0.1015 
     92 H92        21.4159  -27.7178  -38.2686 H         1 UNK         0.0786 
     93 H93        22.9817  -26.9102  -38.3722 H         1 UNK         0.0786 
     94 H94        22.6942  -28.1370  -37.1452 H         1 UNK         0.0786 
     95 H95        25.0462  -28.2472  -40.4688 H         1 UNK         0.3172 
     96 H96        27.1133  -29.3579  -38.6810 H         1 UNK         0.0595 
     97 H97        27.4028  -27.0865  -39.6828 H         1 UNK         0.0839 
     98 H98        27.3291  -27.7803  -41.3035 H         1 UNK         0.0839 
     99 H99        28.6585  -28.1833  -40.2271 H         1 UNK         0.0839 
    100 H100       25.1562  -30.7124  -41.0673 H         1 UNK         0.2998 
    101 H101       27.1684  -32.7525  -41.8205 H         1 UNK         0.0822 
    102 H102       27.2819  -31.1381  -43.6645 H         1 UNK         0.0787 
    103 H103       26.4119  -32.5532  -44.2218 H         1 UNK         0.0787 
    104 H104       25.5331  -31.0780  -43.8102 H         1 UNK         0.0787 
    105 H105       24.1741  -32.5689  -43.4889 H         1 UNK         0.3055 
    106 H106       23.4208  -35.1600  -42.9298 H         1 UNK         0.1106 
    107 H107       21.6693  -32.8264  -43.8759 H         1 UNK         0.0828 
    108 H108       22.6483  -33.8744  -44.9043 H         1 UNK         0.0828 
    109 H109       21.2648  -34.5277  -44.0451 H         1 UNK         0.0828 
    110 H110       22.4623  -32.2899  -41.0890 H         1 UNK         0.2931 
    111 H111       20.8208  -34.0005  -39.2582 H         1 UNK         0.0412 
    112 H112       23.9680  -33.3389  -39.3391 H         1 UNK         0.3472 
    113 H113       24.2044  -32.8581  -37.6753 H         1 UNK         0.3472 
    114 H114       20.5867  -30.9935  -39.6916 H         1 UNK         0.0970 
    115 H115       19.6803  -31.9187  -38.5298 H         1 UNK         0.0970 
    116 H116       20.4061  -31.0546  -42.0613 H         1 UNK         0.0612 
    117 H117       19.1588  -31.7782  -43.0318 H         1 UNK         0.0612 
@<TRIPOS>BOND
     1    1    2 1    
     2    1   62 1    
     3    1   63 1    
     4    1   64 1    
     5    2    3 2    
     6    2    4 am   BACKBONE|DICT|INTERRES
     7    4    5 1    
     8    4   65 1    
     9    5    6 1    
    10    5   25 1    
    11    5   66 1    
    12    6    7 1    
    13    6   67 1    
    14    6   68 1    
    15    7    8 1    
    16    8    9 1    
    17    8   69 1    
    18    8   70 1    
    19    9   10 ar   
    20    9   14 ar   
    21   10   11 ar   
    22   10   71 1    
    23   11   12 ar   
    24   11   61 1    
    25   12   13 ar   
    26   12   72 1    
    27   13   14 ar   
    28   13   15 1    
    29   14   73 1    
    30   15   16 1    
    31   15   74 1    
    32   15   75 1    
    33   16   17 1    
    34   17   18 1    
    35   17   76 1    
    36   17   77 1    
    37   18   19 1    
    38   18   27 1    
    39   18   78 1    
    40   19   20 am   BACKBONE|DICT|INTERRES
    41   19   79 1    
    42   20   21 2    
    43   20   22 1    
    44   22   23 1    
    45   22   24 1    
    46   22   80 1    
    47   23   81 1    
    48   23   82 1    
    49   23   83 1    
    50   24   25 am   BACKBONE|DICT|INTERRES
    51   24   84 1    
    52   25   26 2    
    53   27   28 2    
    54   27   29 am   BACKBONE|DICT|INTERRES
    55   29   30 1    
    56   29   85 1    
    57   30   31 1    
    58   30   32 1    
    59   30   86 1    
    60   31   87 1    
    61   31   88 1    
    62   31   89 1    
    63   32   33 2    
    64   32   34 am   BACKBONE|DICT|INTERRES
    65   34   35 1    
    66   34   90 1    
    67   35   36 1    
    68   35   37 1    
    69   35   91 1    
    70   36   92 1    
    71   36   93 1    
    72   36   94 1    
    73   37   38 2    
    74   37   39 am   BACKBONE|DICT|INTERRES
    75   39   40 1    
    76   39   95 1    
    77   40   41 1    
    78   40   42 1    
    79   40   96 1    
    80   41   97 1    
    81   41   98 1    
    82   41   99 1    
    83   42   43 2    
    84   42   44 am   BACKBONE|DICT|INTERRES
    85   44   45 1    
    86   44  100 1    
    87   45   46 1    
    88   45   47 1    
    89   45  101 1    
    90   46  102 1    
    91   46  103 1    
    92   46  104 1    
    93   47   48 2    
    94   47   49 am   BACKBONE|DICT|INTERRES
    95   49   50 1    
    96   49  105 1    
    97   50   51 1    
    98   50   52 1    
    99   50  106 1    
   100   51  107 1    
   101   51  108 1    
   102   51  109 1    
   103   52   53 2    
   104   52   54 am   BACKBONE|DICT|INTERRES
   105   54   55 1    
   106   54  110 1    
   107   55   56 1    
   108   55   59 1    
   109   55  111 1    
   110   56   57 am   BACKBONE|DICT|INTERRES
   111   56   58 2    
   112   57  112 1    
   113   57  113 1    
   114   59   60 1    
   115   59  114 1    
   116   59  115 1    
   117   60   61 1    
   118   61  116 1    
   119   61  117 1    
@<TRIPOS>SUBSTRUCTURE
     1 UNK         1 GROUP             0       ****    0 ROOT    
