@<TRIPOS>MOLECULE
3R8
117   119    1
SMALL
USER_CHARGES


@<TRIPOS>ATOM
      1 CA         20.4470  -23.7270  -40.2541 C.3       0 UNK        -0.2013 
      2 C          19.4893  -23.9068  -41.4217 C.2       0 UNK         0.4866 
      3 O          18.8300  -22.9485  -41.8258 O.2       0 UNK        -0.5176 
      4 N          19.4092  -25.1263  -41.9705 N.am      1 UNK        -0.4884 
      5 CA         18.5230  -25.4619  -43.0973 C.3       1 UNK         0.0853 
      6 C6         18.1076  -26.9534  -43.1236 C.3       10 UNK        -0.0849 
      7 S7         17.4169  -27.6008  -41.5618 S.3       10 UNK        -0.2776 
      8 C8         16.3984  -29.0148  -42.1202 C.3       10 UNK         0.0316 
      9 C9         17.1722  -29.9724  -43.0189 C.ar      10 UNK        -0.0863 
     10 C10        17.9316  -31.0171  -42.4812 C.ar      10 UNK        -0.1009 
     11 C11        18.6907  -31.8455  -43.3185 C.ar      10 UNK        -0.0712 
     12 C12        18.6905  -31.6083  -44.7008 C.ar      10 UNK        -0.0894 
     13 C13        17.9540  -30.5523  -45.2468 C.ar      10 UNK        -0.0745 
     14 C14        17.1543  -29.7795  -44.4017 C.ar      10 UNK        -0.0972 
     15 C15        18.0489  -30.2291  -46.7373 C.3       10 UNK         0.0209 
     16 S16        18.1826  -28.4288  -47.0547 S.3       10 UNK        -0.2568 
     17 C17        19.6121  -28.2874  -48.1850 C.3       10 UNK        -0.0983 
     18 CA         20.9055  -27.7398  -47.5229 C.3       3 UNK         0.0876 
     19 N          20.6819  -26.4580  -46.8361 N.am      3 UNK        -0.4424 
     20 C          21.6352  -25.5559  -46.5685 C.2       2 UNK         0.4918 
     21 O          22.7895  -25.6491  -46.9854 O.2       2 UNK        -0.4875 
     22 CA         21.2717  -24.3738  -45.6490 C.3       2 UNK         0.0481 
     23 CB         20.6861  -23.1965  -46.4529 C.3       2 UNK        -0.1831 
     24 N          20.4318  -24.7329  -44.4937 N.am      2 UNK        -0.4498 
     25 C          19.1349  -25.0795  -44.4653 C.2       1 UNK         0.5027 
     26 O          18.4346  -25.1530  -45.4751 O.2       1 UNK        -0.4969 
     27 C          21.5668  -28.7966  -46.6078 C.2       3 UNK         0.5005 
     28 O          22.0446  -29.8162  -47.1088 O.2       3 UNK        -0.5279 
     29 N          21.5719  -28.5418  -45.2946 N.am      4 UNK        -0.4463 
     30 CA         22.0959  -29.4170  -44.2538 C.3       4 UNK         0.0283 
     31 CB         21.1333  -29.3455  -43.0596 C.3       4 UNK        -0.1875 
     32 C          23.4784  -28.9630  -43.7814 C.2       4 UNK         0.4949 
     33 O          23.8481  -27.8001  -43.9596 O.2       4 UNK        -0.5039 
     34 N          24.1677  -29.8701  -43.0776 N.am      5 UNK        -0.4663 
     35 CA         25.2156  -29.5132  -42.1224 C.3       5 UNK         0.0242 
     36 CB         26.1026  -30.7353  -41.8282 C.3       5 UNK        -0.1982 
     37 C          24.5098  -29.0028  -40.8568 C.2       5 UNK         0.5017 
     38 O          23.8796  -29.8050  -40.1572 O.2       5 UNK        -0.5012 
     39 N          24.5488  -27.6769  -40.6540 N.am      6 UNK        -0.4439 
     40 CA         23.7605  -26.9103  -39.6824 C.3       6 UNK         0.0297 
     41 CB         24.2087  -27.2208  -38.2350 C.3       6 UNK        -0.2006 
     42 C          22.2566  -27.1171  -39.9440 C.2       6 UNK         0.4892 
     43 O          21.7434  -26.6077  -40.9409 O.2       6 UNK        -0.5089 
     44 N          21.5978  -27.8910  -39.0788 N.am      7 UNK        -0.4243 
     45 CA         20.2539  -28.4312  -39.2790 C.3       7 UNK         0.0196 
     46 CB         19.2485  -27.5989  -38.4608 C.3       7 UNK        -0.2007 
     47 C          20.2089  -29.9253  -38.9067 C.2       7 UNK         0.5020 
     48 O          19.1217  -30.4587  -38.6837 O.2       7 UNK        -0.5147 
     49 N          21.3813  -30.5683  -38.7977 N.am      8 UNK        -0.4734 
     50 CA         21.5345  -31.9163  -38.2482 C.3       8 UNK         0.0238 
     51 CB         22.6434  -31.8929  -37.1823 C.3       8 UNK        -0.1912 
     52 C          21.8600  -32.9631  -39.3194 C.2       8 UNK         0.5038 
     53 O          21.4090  -34.1010  -39.1852 O.2       8 UNK        -0.5046 
     54 N          22.6507  -32.5811  -40.3340 N.am      9 UNK        -0.4200 
     55 CA         23.2003  -33.4853  -41.3652 C.3       9 UNK         0.0839 
     56 C          24.2215  -34.5323  -40.8190 C.2       9 UNK         0.5513 
     57 N          24.8369  -34.3093  -39.6635 N.am      9 UNK        -0.7519 
     58 O          24.4900  -35.5444  -41.4613 O.2       9 UNK        -0.4960 
     59 C59        22.1124  -34.1165  -42.2843 C.3       10 UNK        -0.0876 
     60 S60        21.2777  -32.8512  -43.2890 S.3       10 UNK        -0.2414 
     61 C61        19.5489  -32.9589  -42.7239 C.3       10 UNK         0.0169 
     62 H62        21.4654  -23.5925  -40.6176 H         1 UNK         0.0903 
     63 H63        20.1753  -22.8515  -39.6648 H         1 UNK         0.0903 
     64 H64        20.4276  -24.5925  -39.5934 H         1 UNK         0.0903 
     65 H65        20.0056  -25.8695  -41.6152 H         1 UNK         0.3096 
     66 H66        17.6065  -24.8758  -42.9965 H         1 UNK         0.1121 
     67 H67        18.9495  -27.5835  -43.4073 H         1 UNK         0.0849 
     68 H68        17.3529  -27.0853  -43.8994 H         1 UNK         0.0849 
     69 H69        15.5175  -28.6370  -42.6415 H         1 UNK         0.0865 
     70 H70        16.0255  -29.5487  -41.2449 H         1 UNK         0.0865 
     71 H71        17.9529  -31.1650  -41.4096 H         1 UNK         0.1346 
     72 H72        19.3020  -32.2236  -45.3465 H         1 UNK         0.1412 
     73 H73        16.5591  -28.9802  -44.8199 H         1 UNK         0.1426 
     74 H74        17.1627  -30.6142  -47.2428 H         1 UNK         0.0716 
     75 H75        18.9056  -30.7439  -47.1743 H         1 UNK         0.0716 
     76 H76        19.3155  -27.6088  -48.9862 H         1 UNK         0.0695 
     77 H77        19.7982  -29.2428  -48.6788 H         1 UNK         0.0695 
     78 H78        21.6211  -27.5607  -48.3287 H         1 UNK         0.0983 
     79 H79        19.7413  -26.2829  -46.4955 H         1 UNK         0.3095 
     80 H80        22.2098  -24.0252  -45.2141 H         1 UNK         0.0454 
     81 H81        20.4724  -22.3435  -45.8091 H         1 UNK         0.0851 
     82 H82        19.7651  -23.4668  -46.9697 H         1 UNK         0.0851 
     83 H83        21.3919  -22.8594  -47.2132 H         1 UNK         0.0851 
     84 H84        20.9106  -24.7355  -43.6030 H         1 UNK         0.2976 
     85 H85        21.2363  -27.6415  -44.9899 H         1 UNK         0.3116 
     86 H86        22.1555  -30.4426  -44.6210 H         1 UNK         0.0646 
     87 H87        20.1219  -29.5952  -43.3625 H         1 UNK         0.0847 
     88 H88        21.1020  -28.3463  -42.6309 H         1 UNK         0.0847 
     89 H89        21.4181  -30.0336  -42.2629 H         1 UNK         0.0847 
     90 H90        23.7680  -30.7915  -42.9749 H         1 UNK         0.3040 
     91 H91        25.8457  -28.7266  -42.5442 H         1 UNK         0.1015 
     92 H92        26.5203  -31.1534  -42.7442 H         1 UNK         0.0786 
     93 H93        25.5629  -31.5283  -41.3122 H         1 UNK         0.0786 
     94 H94        26.9409  -30.4543  -41.1896 H         1 UNK         0.0786 
     95 H95        25.0361  -27.1165  -41.3401 H         1 UNK         0.3172 
     96 H96        23.9629  -25.8553  -39.8730 H         1 UNK         0.0595 
     97 H97        24.1049  -28.2747  -37.9753 H         1 UNK         0.0839 
     98 H98        23.6329  -26.6410  -37.5122 H         1 UNK         0.0839 
     99 H99        25.2559  -26.9551  -38.0904 H         1 UNK         0.0839 
    100 H100       22.1007  -28.2466  -38.2779 H         1 UNK         0.2998 
    101 H101       19.9830  -28.3751  -40.3347 H         1 UNK         0.0822 
    102 H102       19.2476  -26.5570  -38.7791 H         1 UNK         0.0787 
    103 H103       18.2311  -27.9706  -38.5887 H         1 UNK         0.0787 
    104 H104       19.4763  -27.6266  -37.3949 H         1 UNK         0.0787 
    105 H105       22.2299  -30.1059  -39.1109 H         1 UNK         0.3055 
    106 H106       20.6106  -32.2347  -37.7593 H         1 UNK         0.1106 
    107 H107       23.5966  -31.5584  -37.5939 H         1 UNK         0.0828 
    108 H108       22.3842  -31.2273  -36.3589 H         1 UNK         0.0828 
    109 H109       22.7996  -32.8854  -36.7567 H         1 UNK         0.0828 
    110 H110       23.0035  -31.6309  -40.3414 H         1 UNK         0.2931 
    111 H111       23.8085  -32.8476  -42.0057 H         1 UNK         0.0412 
    112 H112       24.6456  -33.4766  -39.1311 H         1 UNK         0.3472 
    113 H113       25.5035  -34.9846  -39.3229 H         1 UNK         0.3472 
    114 H114       21.3867  -34.6936  -41.7105 H         1 UNK         0.0970 
    115 H115       22.5593  -34.8201  -42.9886 H         1 UNK         0.0970 
    116 H116       19.1339  -33.9261  -43.0096 H         1 UNK         0.0612 
    117 H117       19.5338  -32.9145  -41.6336 H         1 UNK         0.0612 
@<TRIPOS>BOND
     1    1    2 1    
     2    1   62 1    
     3    1   63 1    
     4    1   64 1    
     5    2    3 2    
     6    2    4 am   BACKBONE|DICT|INTERRES
     7    4    5 1    
     8    4   65 1    
     9    5    6 1    
    10    5   25 1    
    11    5   66 1    
    12    6    7 1    
    13    6   67 1    
    14    6   68 1    
    15    7    8 1    
    16    8    9 1    
    17    8   69 1    
    18    8   70 1    
    19    9   10 ar   
    20    9   14 ar   
    21   10   11 ar   
    22   10   71 1    
    23   11   12 ar   
    24   11   61 1    
    25   12   13 ar   
    26   12   72 1    
    27   13   14 ar   
    28   13   15 1    
    29   14   73 1    
    30   15   16 1    
    31   15   74 1    
    32   15   75 1    
    33   16   17 1    
    34   17   18 1    
    35   17   76 1    
    36   17   77 1    
    37   18   19 1    
    38   18   27 1    
    39   18   78 1    
    40   19   20 am   BACKBONE|DICT|INTERRES
    41   19   79 1    
    42   20   21 2    
    43   20   22 1    
    44   22   23 1    
    45   22   24 1    
    46   22   80 1    
    47   23   81 1    
    48   23   82 1    
    49   23   83 1    
    50   24   25 am   BACKBONE|DICT|INTERRES
    51   24   84 1    
    52   25   26 2    
    53   27   28 2    
    54   27   29 am   BACKBONE|DICT|INTERRES
    55   29   30 1    
    56   29   85 1    
    57   30   31 1    
    58   30   32 1    
    59   30   86 1    
    60   31   87 1    
    61   31   88 1    
    62   31   89 1    
    63   32   33 2    
    64   32   34 am   BACKBONE|DICT|INTERRES
    65   34   35 1    
    66   34   90 1    
    67   35   36 1    
    68   35   37 1    
    69   35   91 1    
    70   36   92 1    
    71   36   93 1    
    72   36   94 1    
    73   37   38 2    
    74   37   39 am   BACKBONE|DICT|INTERRES
    75   39   40 1    
    76   39   95 1    
    77   40   41 1    
    78   40   42 1    
    79   40   96 1    
    80   41   97 1    
    81   41   98 1    
    82   41   99 1    
    83   42   43 2    
    84   42   44 am   BACKBONE|DICT|INTERRES
    85   44   45 1    
    86   44  100 1    
    87   45   46 1    
    88   45   47 1    
    89   45  101 1    
    90   46  102 1    
    91   46  103 1    
    92   46  104 1    
    93   47   48 2    
    94   47   49 am   BACKBONE|DICT|INTERRES
    95   49   50 1    
    96   49  105 1    
    97   50   51 1    
    98   50   52 1    
    99   50  106 1    
   100   51  107 1    
   101   51  108 1    
   102   51  109 1    
   103   52   53 2    
   104   52   54 am   BACKBONE|DICT|INTERRES
   105   54   55 1    
   106   54  110 1    
   107   55   56 1    
   108   55   59 1    
   109   55  111 1    
   110   56   57 am   BACKBONE|DICT|INTERRES
   111   56   58 2    
   112   57  112 1    
   113   57  113 1    
   114   59   60 1    
   115   59  114 1    
   116   59  115 1    
   117   60   61 1    
   118   61  116 1    
   119   61  117 1    
@<TRIPOS>SUBSTRUCTURE
     1 UNK         1 GROUP             0       ****    0 ROOT    
