@<TRIPOS>MOLECULE
3R8
117   119    1
SMALL
USER_CHARGES


@<TRIPOS>ATOM
      1 CA         15.0813  -23.2066  -41.4817 C.3       0 UNK        -0.2013 
      2 C          15.4367  -23.9773  -42.7443 C.2       0 UNK         0.4866 
      3 O          15.0390  -23.5777  -43.8394 O.2       0 UNK        -0.5176 
      4 N          16.1745  -25.0842  -42.5994 N.am      1 UNK        -0.4884 
      5 CA         16.6882  -25.9047  -43.7005 C.3       1 UNK         0.0853 
      6 C6         17.0768  -27.3276  -43.2188 C.3       10 UNK        -0.0849 
      7 S7         18.2154  -27.3484  -41.7902 S.3       10 UNK        -0.2776 
      8 C8         18.1794  -29.1060  -41.3077 C.3       10 UNK         0.0316 
      9 C9         18.6437  -30.0323  -42.4247 C.ar      10 UNK        -0.0863 
     10 C10        17.8455  -31.1082  -42.8240 C.ar      10 UNK        -0.1009 
     11 C11        18.2587  -31.9565  -43.8558 C.ar      10 UNK        -0.0712 
     12 C12        19.4777  -31.7175  -44.4978 C.ar      10 UNK        -0.0894 
     13 C13        20.2836  -30.6442  -44.1064 C.ar      10 UNK        -0.0745 
     14 C14        19.8698  -29.8170  -43.0598 C.ar      10 UNK        -0.0972 
     15 C15        21.5890  -30.3558  -44.8269 C.3       10 UNK         0.0209 
     16 S16        21.3014  -29.1758  -46.1792 S.3       10 UNK        -0.2568 
     17 C17        22.5724  -27.8940  -45.8833 C.3       10 UNK        -0.0983 
     18 CA         22.0845  -26.6319  -45.1100 C.3       3 UNK         0.0876 
     19 N          20.7476  -26.1958  -45.5184 N.am      3 UNK        -0.4424 
     20 C          20.4679  -25.1369  -46.2837 C.2       2 UNK         0.4918 
     21 O          21.3177  -24.3562  -46.7130 O.2       2 UNK        -0.4875 
     22 CA         18.9871  -24.9026  -46.6407 C.3       2 UNK         0.0481 
     23 CB         18.7086  -25.3839  -48.0739 C.3       2 UNK        -0.1831 
     24 N          18.0207  -25.5315  -45.7295 N.am      2 UNK        -0.4498 
     25 C          17.8434  -25.1941  -44.4435 C.2       1 UNK         0.5027 
     26 O          18.5510  -24.3719  -43.8548 O.2       1 UNK        -0.4969 
     27 C          22.1695  -26.7374  -43.5741 C.2       3 UNK         0.5005 
     28 O          22.8492  -27.6199  -43.0511 O.2       3 UNK        -0.5279 
     29 N          21.5111  -25.8075  -42.8630 N.am      4 UNK        -0.4463 
     30 CA         21.4689  -25.7156  -41.3947 C.3       4 UNK         0.0283 
     31 CB         20.5560  -24.5456  -40.9901 C.3       4 UNK        -0.1875 
     32 C          22.8374  -25.5767  -40.6970 C.2       4 UNK         0.4949 
     33 O          22.9345  -25.8680  -39.5051 O.2       4 UNK        -0.5039 
     34 N          23.8643  -25.1368  -41.4369 N.am      5 UNK        -0.4663 
     35 CA         25.2533  -25.0615  -40.9778 C.3       5 UNK         0.0242 
     36 CB         26.0298  -24.1105  -41.9039 C.3       5 UNK        -0.1982 
     37 C          25.9556  -26.4326  -40.9039 C.2       5 UNK         0.5017 
     38 O          26.9888  -26.5319  -40.2399 O.2       5 UNK        -0.5012 
     39 N          25.4152  -27.4506  -41.5895 N.am      6 UNK        -0.4439 
     40 CA         25.9255  -28.8227  -41.5889 C.3       6 UNK         0.0297 
     41 CB         25.5719  -29.4792  -42.9375 C.3       6 UNK        -0.2006 
     42 C          25.3564  -29.6317  -40.4081 C.2       6 UNK         0.4892 
     43 O          24.5512  -29.1230  -39.6254 O.2       6 UNK        -0.5089 
     44 N          25.7681  -30.9043  -40.3205 N.am      7 UNK        -0.4243 
     45 CA         25.2966  -31.8800  -39.3281 C.3       7 UNK         0.0196 
     46 CB         26.2371  -33.0973  -39.3468 C.3       7 UNK        -0.2007 
     47 C          23.8302  -32.3274  -39.5168 C.2       7 UNK         0.5020 
     48 O          23.2866  -32.9657  -38.6145 O.2       7 UNK        -0.5147 
     49 N          23.2322  -31.9851  -40.6684 N.am      8 UNK        -0.4734 
     50 CA         21.8729  -32.2945  -41.1311 C.3       8 UNK         0.0238 
     51 CB         20.8058  -31.8231  -40.1180 C.3       8 UNK        -0.1912 
     52 C          21.6835  -33.7672  -41.5371 C.2       8 UNK         0.5038 
     53 O          22.5838  -34.5911  -41.3578 O.2       8 UNK        -0.5046 
     54 N          20.5138  -34.0616  -42.1177 N.am      9 UNK        -0.4200 
     55 CA         20.1211  -35.3997  -42.5857 C.3       9 UNK         0.0839 
     56 C          19.7448  -36.4143  -41.4644 C.2       9 UNK         0.5513 
     57 N          19.6288  -36.0077  -40.2057 N.am      9 UNK        -0.7519 
     58 O          19.5681  -37.5975  -41.7433 O.2       9 UNK        -0.4960 
     59 C59        19.0431  -35.3200  -43.6990 C.3       10 UNK        -0.0876 
     60 S60        17.4795  -34.5318  -43.1705 S.3       10 UNK        -0.2414 
     61 C61        17.3635  -33.1053  -44.2954 C.3       10 UNK         0.0169 
     62 H62        15.4877  -23.6791  -40.5876 H         1 UNK         0.0903 
     63 H63        15.4762  -22.1925  -41.5382 H         1 UNK         0.0903 
     64 H64        13.9989  -23.1456  -41.3708 H         1 UNK         0.0903 
     65 H65        16.5074  -25.3518  -41.6835 H         1 UNK         0.3096 
     66 H66        15.8749  -26.0181  -44.4215 H         1 UNK         0.1121 
     67 H67        16.1719  -27.8659  -42.9324 H         1 UNK         0.0849 
     68 H68        17.5163  -27.9085  -44.0322 H         1 UNK         0.0849 
     69 H69        18.8266  -29.2463  -40.4412 H         1 UNK         0.0865 
     70 H70        17.1695  -29.3611  -40.9826 H         1 UNK         0.0865 
     71 H71        16.8964  -31.2869  -42.3368 H         1 UNK         0.1346 
     72 H72        19.7927  -32.3549  -45.3127 H         1 UNK         0.1412 
     73 H73        20.4919  -28.9880  -42.7524 H         1 UNK         0.1426 
     74 H74        22.0131  -31.2742  -45.2353 H         1 UNK         0.0716 
     75 H75        22.3228  -29.9676  -44.1212 H         1 UNK         0.0716 
     76 H76        23.4587  -28.3388  -45.4274 H         1 UNK         0.0695 
     77 H77        22.9045  -27.5739  -46.8719 H         1 UNK         0.0695 
     78 H78        22.8001  -25.8405  -45.3434 H         1 UNK         0.0983 
     79 H79        19.9860  -26.7872  -45.2186 H         1 UNK         0.3095 
     80 H80        18.8157  -23.8247  -46.6073 H         1 UNK         0.0454 
     81 H81        19.3860  -24.9084  -48.7848 H         1 UNK         0.0851 
     82 H82        18.8418  -26.4623  -48.1707 H         1 UNK         0.0851 
     83 H83        17.6935  -25.1394  -48.3869 H         1 UNK         0.0851 
     84 H84        17.4093  -26.2235  -46.1395 H         1 UNK         0.2976 
     85 H85        20.9555  -25.1285  -43.3670 H         1 UNK         0.3116 
     86 H86        21.0245  -26.6422  -41.0269 H         1 UNK         0.0646 
     87 H87        20.4825  -24.4626  -39.9049 H         1 UNK         0.0847 
     88 H88        19.5427  -24.6790  -41.3673 H         1 UNK         0.0847 
     89 H89        20.9305  -23.5929  -41.3660 H         1 UNK         0.0847 
     90 H90        23.6881  -24.9020  -42.4024 H         1 UNK         0.3040 
     91 H91        25.2617  -24.6407  -39.9697 H         1 UNK         0.1015 
     92 H92        25.5871  -23.1142  -41.9122 H         1 UNK         0.0786 
     93 H93        26.0551  -24.4773  -42.9308 H         1 UNK         0.0786 
     94 H94        27.0634  -24.0001  -41.5723 H         1 UNK         0.0786 
     95 H95        24.5177  -27.3142  -42.0469 H         1 UNK         0.3172 
     96 H96        27.0131  -28.8017  -41.4926 H         1 UNK         0.0595 
     97 H97        26.0742  -30.4391  -43.0597 H         1 UNK         0.0839 
     98 H98        25.8779  -28.8533  -43.7761 H         1 UNK         0.0839 
     99 H99        24.5009  -29.6581  -43.0318 H         1 UNK         0.0839 
    100 H100       26.4383  -31.2431  -40.9962 H         1 UNK         0.2998 
    101 H101       25.3622  -31.4135  -38.3427 H         1 UNK         0.0822 
    102 H102       26.2178  -33.6062  -40.3115 H         1 UNK         0.0787 
    103 H103       27.2672  -32.8087  -39.1369 H         1 UNK         0.0787 
    104 H104       25.9474  -33.8270  -38.5893 H         1 UNK         0.0787 
    105 H105       23.8039  -31.4849  -41.3326 H         1 UNK         0.3055 
    106 H106       21.7467  -31.7120  -42.0423 H         1 UNK         0.1106 
    107 H107       20.8156  -32.4173  -39.2044 H         1 UNK         0.0828 
    108 H108       20.9602  -30.7801  -39.8414 H         1 UNK         0.0828 
    109 H109       19.8011  -31.8967  -40.5338 H         1 UNK         0.0828 
    110 H110       19.8181  -33.3387  -42.2367 H         1 UNK         0.2931 
    111 H111       21.0054  -35.8305  -43.0598 H         1 UNK         0.0412 
    112 H112       19.3901  -36.6763  -39.4901 H         1 UNK         0.3472 
    113 H113       19.7773  -35.0413  -39.9656 H         1 UNK         0.3472 
    114 H114       18.8111  -36.3181  -44.0754 H         1 UNK         0.0970 
    115 H115       19.4512  -34.7830  -44.5559 H         1 UNK         0.0970 
    116 H116       17.5968  -33.4167  -45.3148 H         1 UNK         0.0612 
    117 H117       16.3275  -32.7638  -44.3154 H         1 UNK         0.0612 
@<TRIPOS>BOND
     1    1    2 1    
     2    1   62 1    
     3    1   63 1    
     4    1   64 1    
     5    2    3 2    
     6    2    4 am   BACKBONE|DICT|INTERRES
     7    4    5 1    
     8    4   65 1    
     9    5    6 1    
    10    5   25 1    
    11    5   66 1    
    12    6    7 1    
    13    6   67 1    
    14    6   68 1    
    15    7    8 1    
    16    8    9 1    
    17    8   69 1    
    18    8   70 1    
    19    9   10 ar   
    20    9   14 ar   
    21   10   11 ar   
    22   10   71 1    
    23   11   12 ar   
    24   11   61 1    
    25   12   13 ar   
    26   12   72 1    
    27   13   14 ar   
    28   13   15 1    
    29   14   73 1    
    30   15   16 1    
    31   15   74 1    
    32   15   75 1    
    33   16   17 1    
    34   17   18 1    
    35   17   76 1    
    36   17   77 1    
    37   18   19 1    
    38   18   27 1    
    39   18   78 1    
    40   19   20 am   BACKBONE|DICT|INTERRES
    41   19   79 1    
    42   20   21 2    
    43   20   22 1    
    44   22   23 1    
    45   22   24 1    
    46   22   80 1    
    47   23   81 1    
    48   23   82 1    
    49   23   83 1    
    50   24   25 am   BACKBONE|DICT|INTERRES
    51   24   84 1    
    52   25   26 2    
    53   27   28 2    
    54   27   29 am   BACKBONE|DICT|INTERRES
    55   29   30 1    
    56   29   85 1    
    57   30   31 1    
    58   30   32 1    
    59   30   86 1    
    60   31   87 1    
    61   31   88 1    
    62   31   89 1    
    63   32   33 2    
    64   32   34 am   BACKBONE|DICT|INTERRES
    65   34   35 1    
    66   34   90 1    
    67   35   36 1    
    68   35   37 1    
    69   35   91 1    
    70   36   92 1    
    71   36   93 1    
    72   36   94 1    
    73   37   38 2    
    74   37   39 am   BACKBONE|DICT|INTERRES
    75   39   40 1    
    76   39   95 1    
    77   40   41 1    
    78   40   42 1    
    79   40   96 1    
    80   41   97 1    
    81   41   98 1    
    82   41   99 1    
    83   42   43 2    
    84   42   44 am   BACKBONE|DICT|INTERRES
    85   44   45 1    
    86   44  100 1    
    87   45   46 1    
    88   45   47 1    
    89   45  101 1    
    90   46  102 1    
    91   46  103 1    
    92   46  104 1    
    93   47   48 2    
    94   47   49 am   BACKBONE|DICT|INTERRES
    95   49   50 1    
    96   49  105 1    
    97   50   51 1    
    98   50   52 1    
    99   50  106 1    
   100   51  107 1    
   101   51  108 1    
   102   51  109 1    
   103   52   53 2    
   104   52   54 am   BACKBONE|DICT|INTERRES
   105   54   55 1    
   106   54  110 1    
   107   55   56 1    
   108   55   59 1    
   109   55  111 1    
   110   56   57 am   BACKBONE|DICT|INTERRES
   111   56   58 2    
   112   57  112 1    
   113   57  113 1    
   114   59   60 1    
   115   59  114 1    
   116   59  115 1    
   117   60   61 1    
   118   61  116 1    
   119   61  117 1    
@<TRIPOS>SUBSTRUCTURE
     1 UNK         1 GROUP             0       ****    0 ROOT    
