@<TRIPOS>MOLECULE
3R8
117   119    1
SMALL
USER_CHARGES


@<TRIPOS>ATOM
      1 CA         20.9887  -26.9145  -50.5180 C.3       0 UNK        -0.2013 
      2 C          21.2353  -27.1489  -49.0350 C.2       0 UNK         0.4866 
      3 O          22.3079  -26.8133  -48.5316 O.2       0 UNK        -0.5176 
      4 N          20.2550  -27.7305  -48.3339 N.am      1 UNK        -0.4884 
      5 CA         20.2830  -27.9612  -46.8867 C.3       1 UNK         0.0853 
      6 C6         19.2614  -29.0525  -46.4612 C.3       10 UNK        -0.0849 
      7 S7         17.5370  -28.7119  -46.9726 S.3       10 UNK        -0.2776 
      8 C8         16.6374  -30.1190  -46.2424 C.3       10 UNK         0.0316 
      9 C9         16.6150  -30.0570  -44.7213 C.ar      10 UNK        -0.0863 
     10 C10        17.4187  -30.9176  -43.9692 C.ar      10 UNK        -0.1009 
     11 C11        17.4330  -30.8395  -42.5729 C.ar      10 UNK        -0.0712 
     12 C12        16.5903  -29.9305  -41.9274 C.ar      10 UNK        -0.0894 
     13 C13        15.7811  -29.0648  -42.6684 C.ar      10 UNK        -0.0745 
     14 C14        15.7955  -29.1343  -44.0649 C.ar      10 UNK        -0.0972 
     15 C15        14.9048  -28.0390  -41.9673 C.3       10 UNK         0.0209 
     16 S16        15.7051  -26.4039  -41.9281 S.3       10 UNK        -0.2568 
     17 C17        16.8388  -26.5491  -40.5026 C.3       10 UNK        -0.0983 
     18 CA         18.2797  -26.9833  -40.8785 C.3       3 UNK         0.0876 
     19 N          18.8432  -26.1892  -41.9728 N.am      3 UNK        -0.4424 
     20 C          20.0282  -26.4005  -42.5572 C.2       2 UNK         0.4918 
     21 O          20.8730  -27.2124  -42.1676 O.2       2 UNK        -0.4875 
     22 CA         20.2966  -25.6214  -43.8445 C.3       2 UNK         0.0481 
     23 CB         21.4869  -24.6601  -43.6933 C.3       2 UNK        -0.1831 
     24 N          20.5798  -26.6310  -44.8574 N.am      2 UNK        -0.4498 
     25 C          20.0804  -26.6480  -46.0973 C.2       1 UNK         0.5027 
     26 O          19.4538  -25.7092  -46.5977 O.2       1 UNK        -0.4969 
     27 C          19.1954  -26.9744  -39.6415 C.2       3 UNK         0.5005 
     28 O          19.3885  -25.9139  -39.0427 O.2       3 UNK        -0.5279 
     29 N          19.7883  -28.1359  -39.3264 N.am      4 UNK        -0.4463 
     30 CA         20.7908  -28.4088  -38.2845 C.3       4 UNK         0.0283 
     31 CB         20.2521  -28.0908  -36.8766 C.3       4 UNK        -0.1875 
     32 C          22.1584  -27.7379  -38.5183 C.2       4 UNK         0.4949 
     33 O          23.1819  -28.3492  -38.2154 O.2       4 UNK        -0.5039 
     34 N          22.1680  -26.5194  -39.0721 N.am      5 UNK        -0.4663 
     35 CA         23.3526  -25.7202  -39.3942 C.3       5 UNK         0.0242 
     36 CB         22.9040  -24.3451  -39.9121 C.3       5 UNK        -0.1982 
     37 C          24.3074  -26.3909  -40.3963 C.2       5 UNK         0.5017 
     38 O          25.5191  -26.2067  -40.2794 O.2       5 UNK        -0.5012 
     39 N          23.7588  -27.1767  -41.3348 N.am      6 UNK        -0.4439 
     40 CA         24.5285  -27.9762  -42.2933 C.3       6 UNK         0.0297 
     41 CB         23.7530  -28.0700  -43.6168 C.3       6 UNK        -0.2006 
     42 C          24.9192  -29.3701  -41.7559 C.2       6 UNK         0.4892 
     43 O          25.4500  -30.1704  -42.5278 O.2       6 UNK        -0.5089 
     44 N          24.6555  -29.6457  -40.4690 N.am      7 UNK        -0.4243 
     45 CA         25.0301  -30.8247  -39.6769 C.3       7 UNK         0.0196 
     46 CB         26.5624  -30.9713  -39.5798 C.3       7 UNK        -0.2007 
     47 C          24.3660  -32.1467  -40.0984 C.2       7 UNK         0.5020 
     48 O          23.6532  -32.7427  -39.2910 O.2       7 UNK        -0.5147 
     49 N          24.6427  -32.6064  -41.3243 N.am      8 UNK        -0.4734 
     50 CA         24.2108  -33.9045  -41.8479 C.3       8 UNK         0.0238 
     51 CB         25.0255  -34.2887  -43.0951 C.3       8 UNK        -0.1912 
     52 C          22.6892  -34.1175  -42.0388 C.2       8 UNK         0.5038 
     53 O          22.2488  -35.2377  -41.7843 O.2       8 UNK        -0.5046 
     54 N          21.8480  -33.1441  -42.4254 N.am      9 UNK        -0.4200 
     55 CA         22.1001  -31.8071  -42.9822 C.3       9 UNK         0.0839 
     56 C          22.7093  -31.9013  -44.4048 C.2       9 UNK         0.5513 
     57 N          23.8509  -31.2766  -44.6501 N.am      9 UNK        -0.7519 
     58 O          22.1293  -32.5138  -45.2979 O.2       9 UNK        -0.4960 
     59 C59        20.7938  -30.9706  -43.0237 C.3       10 UNK        -0.0876 
     60 S60        19.9437  -30.8512  -41.4101 S.3       10 UNK        -0.2414 
     61 C61        18.3743  -31.7139  -41.7572 C.3       10 UNK         0.0169 
     62 H62        20.0072  -27.2716  -50.8297 H         1 UNK         0.0903 
     63 H63        21.0498  -25.8504  -50.7444 H         1 UNK         0.0903 
     64 H64        21.7419  -27.4331  -51.1105 H         1 UNK         0.0903 
     65 H65        19.3765  -27.9505  -48.7828 H         1 UNK         0.3096 
     66 H66        21.2806  -28.3322  -46.6380 H         1 UNK         0.1121 
     67 H67        19.2880  -29.1959  -45.3796 H         1 UNK         0.0849 
     68 H68        19.5570  -30.0110  -46.8910 H         1 UNK         0.0849 
     69 H69        15.6126  -30.1146  -46.6165 H         1 UNK         0.0865 
     70 H70        17.0820  -31.0531  -46.5895 H         1 UNK         0.0865 
     71 H71        18.0460  -31.6360  -44.4772 H         1 UNK         0.1346 
     72 H72        16.5906  -29.8733  -40.8475 H         1 UNK         0.1412 
     73 H73        15.1799  -28.4582  -44.6430 H         1 UNK         0.1426 
     74 H74        14.6547  -28.3619  -40.9556 H         1 UNK         0.0716 
     75 H75        13.9562  -27.9506  -42.4990 H         1 UNK         0.0716 
     76 H76        16.4114  -27.2401  -39.7738 H         1 UNK         0.0695 
     77 H77        16.8550  -25.5732  -40.0132 H         1 UNK         0.0695 
     78 H78        18.2377  -28.0054  -41.2514 H         1 UNK         0.0983 
     79 H79        18.2179  -25.5031  -42.3695 H         1 UNK         0.3095 
     80 H80        19.4065  -25.0486  -44.1142 H         1 UNK         0.0454 
     81 H81        22.3789  -25.1633  -43.3206 H         1 UNK         0.0851 
     82 H82        21.2486  -23.8594  -42.9927 H         1 UNK         0.0851 
     83 H83        21.7399  -24.1920  -44.6445 H         1 UNK         0.0851 
     84 H84        21.0516  -27.4494  -44.4983 H         1 UNK         0.2976 
     85 H85        19.6176  -28.9215  -39.9428 H         1 UNK         0.3116 
     86 H86        20.9669  -29.4850  -38.3302 H         1 UNK         0.0646 
     87 H87        20.0779  -27.0239  -36.7350 H         1 UNK         0.0847 
     88 H88        20.9625  -28.4046  -36.1107 H         1 UNK         0.0847 
     89 H89        19.3153  -28.6130  -36.6826 H         1 UNK         0.0847 
     90 H90        21.2611  -26.0917  -39.2407 H         1 UNK         0.3040 
     91 H91        23.9101  -25.5739  -38.4665 H         1 UNK         0.1015 
     92 H92        22.2865  -24.4351  -40.8056 H         1 UNK         0.0786 
     93 H93        23.7622  -23.7214  -40.1668 H         1 UNK         0.0786 
     94 H94        22.3259  -23.8081  -39.1597 H         1 UNK         0.0786 
     95 H95        22.7463  -27.2563  -41.3788 H         1 UNK         0.3172 
     96 H96        25.4655  -27.4597  -42.5112 H         1 UNK         0.0595 
     97 H97        22.8251  -28.6251  -43.4998 H         1 UNK         0.0839 
     98 H98        24.3451  -28.5680  -44.3849 H         1 UNK         0.0839 
     99 H99        23.5111  -27.0821  -44.0056 H         1 UNK         0.0839 
    100 H100       24.1723  -28.9344  -39.9306 H         1 UNK         0.2998 
    101 H101       24.6702  -30.6144  -38.6683 H         1 UNK         0.0822 
    102 H102       27.0174  -30.0749  -39.1583 H         1 UNK         0.0787 
    103 H103       26.8331  -31.8064  -38.9323 H         1 UNK         0.0787 
    104 H104       27.0227  -31.1531  -40.5513 H         1 UNK         0.0787 
    105 H105       25.1966  -32.0089  -41.9307 H         1 UNK         0.3055 
    106 H106       24.4915  -34.6305  -41.0809 H         1 UNK         0.1106 
    107 H107       24.6712  -35.2283  -43.5216 H         1 UNK         0.0828 
    108 H108       24.9770  -33.5381  -43.8795 H         1 UNK         0.0828 
    109 H109       26.0770  -34.4294  -42.8446 H         1 UNK         0.0828 
    110 H110       20.8752  -33.4033  -42.4617 H         1 UNK         0.2931 
    111 H111       22.7805  -31.2666  -42.3314 H         1 UNK         0.0412 
    112 H112       24.2383  -31.3250  -45.5790 H         1 UNK         0.3472 
    113 H113       24.3752  -30.8105  -43.9156 H         1 UNK         0.3472 
    114 H114       20.1159  -31.3894  -43.7649 H         1 UNK         0.0970 
    115 H115       20.9974  -29.9534  -43.3576 H         1 UNK         0.0970 
    116 H116       18.5718  -32.6554  -42.2719 H         1 UNK         0.0612 
    117 H117       17.9028  -31.9783  -40.8096 H         1 UNK         0.0612 
@<TRIPOS>BOND
     1    1    2 1    
     2    1   62 1    
     3    1   63 1    
     4    1   64 1    
     5    2    3 2    
     6    2    4 am   BACKBONE|DICT|INTERRES
     7    4    5 1    
     8    4   65 1    
     9    5    6 1    
    10    5   25 1    
    11    5   66 1    
    12    6    7 1    
    13    6   67 1    
    14    6   68 1    
    15    7    8 1    
    16    8    9 1    
    17    8   69 1    
    18    8   70 1    
    19    9   10 ar   
    20    9   14 ar   
    21   10   11 ar   
    22   10   71 1    
    23   11   12 ar   
    24   11   61 1    
    25   12   13 ar   
    26   12   72 1    
    27   13   14 ar   
    28   13   15 1    
    29   14   73 1    
    30   15   16 1    
    31   15   74 1    
    32   15   75 1    
    33   16   17 1    
    34   17   18 1    
    35   17   76 1    
    36   17   77 1    
    37   18   19 1    
    38   18   27 1    
    39   18   78 1    
    40   19   20 am   BACKBONE|DICT|INTERRES
    41   19   79 1    
    42   20   21 2    
    43   20   22 1    
    44   22   23 1    
    45   22   24 1    
    46   22   80 1    
    47   23   81 1    
    48   23   82 1    
    49   23   83 1    
    50   24   25 am   BACKBONE|DICT|INTERRES
    51   24   84 1    
    52   25   26 2    
    53   27   28 2    
    54   27   29 am   BACKBONE|DICT|INTERRES
    55   29   30 1    
    56   29   85 1    
    57   30   31 1    
    58   30   32 1    
    59   30   86 1    
    60   31   87 1    
    61   31   88 1    
    62   31   89 1    
    63   32   33 2    
    64   32   34 am   BACKBONE|DICT|INTERRES
    65   34   35 1    
    66   34   90 1    
    67   35   36 1    
    68   35   37 1    
    69   35   91 1    
    70   36   92 1    
    71   36   93 1    
    72   36   94 1    
    73   37   38 2    
    74   37   39 am   BACKBONE|DICT|INTERRES
    75   39   40 1    
    76   39   95 1    
    77   40   41 1    
    78   40   42 1    
    79   40   96 1    
    80   41   97 1    
    81   41   98 1    
    82   41   99 1    
    83   42   43 2    
    84   42   44 am   BACKBONE|DICT|INTERRES
    85   44   45 1    
    86   44  100 1    
    87   45   46 1    
    88   45   47 1    
    89   45  101 1    
    90   46  102 1    
    91   46  103 1    
    92   46  104 1    
    93   47   48 2    
    94   47   49 am   BACKBONE|DICT|INTERRES
    95   49   50 1    
    96   49  105 1    
    97   50   51 1    
    98   50   52 1    
    99   50  106 1    
   100   51  107 1    
   101   51  108 1    
   102   51  109 1    
   103   52   53 2    
   104   52   54 am   BACKBONE|DICT|INTERRES
   105   54   55 1    
   106   54  110 1    
   107   55   56 1    
   108   55   59 1    
   109   55  111 1    
   110   56   57 am   BACKBONE|DICT|INTERRES
   111   56   58 2    
   112   57  112 1    
   113   57  113 1    
   114   59   60 1    
   115   59  114 1    
   116   59  115 1    
   117   60   61 1    
   118   61  116 1    
   119   61  117 1    
@<TRIPOS>SUBSTRUCTURE
     1 UNK         1 GROUP             0       ****    0 ROOT    
