@<TRIPOS>MOLECULE
3R8
117   119    1
SMALL
USER_CHARGES


@<TRIPOS>ATOM
      1 CA         18.7634  -28.8594  -42.2657 C.3       0 UNK        -0.2013 
      2 C          17.9959  -27.5501  -42.2532 C.2       0 UNK         0.4866 
      3 O          18.2365  -26.7065  -41.3900 O.2       0 UNK        -0.5176 
      4 N          17.0726  -27.3738  -43.2076 N.am      1 UNK        -0.4884 
      5 CA         16.2394  -26.1703  -43.3492 C.3       1 UNK         0.0853 
      6 C6         15.0483  -26.3926  -44.3119 C.3       10 UNK        -0.0849 
      7 S7         13.9926  -27.7853  -43.7856 S.3       10 UNK        -0.2776 
      8 C8         14.1044  -28.9132  -45.2124 C.3       10 UNK         0.0316 
      9 C9         15.4825  -29.5463  -45.3693 C.ar      10 UNK        -0.0863 
     10 C10        15.9184  -30.5185  -44.4624 C.ar      10 UNK        -0.1009 
     11 C11        17.1469  -31.1648  -44.6404 C.ar      10 UNK        -0.0712 
     12 C12        17.9340  -30.8339  -45.7490 C.ar      10 UNK        -0.0894 
     13 C13        17.5224  -29.8481  -46.6507 C.ar      10 UNK        -0.0745 
     14 C14        16.2964  -29.2059  -46.4548 C.ar      10 UNK        -0.0972 
     15 C15        18.3888  -29.5049  -47.8558 C.3       10 UNK         0.0209 
     16 S16        19.3506  -27.9780  -47.6106 S.3       10 UNK        -0.2568 
     17 C17        20.4891  -28.4755  -46.2741 C.3       10 UNK        -0.0983 
     18 CA         21.3181  -27.3126  -45.6591 C.3       3 UNK         0.0876 
     19 N          20.4610  -26.2365  -45.1692 N.am      3 UNK        -0.4424 
     20 C          20.1757  -25.0925  -45.8010 C.2       2 UNK         0.4918 
     21 O          20.7213  -24.7267  -46.8432 O.2       2 UNK        -0.4875 
     22 CA         19.0328  -24.2638  -45.1894 C.3       2 UNK         0.0481 
     23 CB         18.4359  -23.2368  -46.1729 C.3       2 UNK        -0.1831 
     24 N          18.0002  -25.1874  -44.7200 N.am      2 UNK        -0.4498 
     25 C          17.0741  -24.9493  -43.7856 C.2       1 UNK         0.5027 
     26 O          16.8883  -23.8522  -43.2574 O.2       1 UNK        -0.4969 
     27 C          22.1223  -27.8483  -44.4626 C.2       3 UNK         0.5005 
     28 O          21.7395  -27.5965  -43.3161 O.2       3 UNK        -0.5279 
     29 N          23.1668  -28.6394  -44.7544 N.am      4 UNK        -0.4463 
     30 CA         23.9407  -29.4533  -43.8069 C.3       4 UNK         0.0283 
     31 CB         23.0647  -30.6099  -43.2783 C.3       4 UNK        -0.1875 
     32 C          24.5728  -28.6199  -42.6760 C.2       4 UNK         0.4949 
     33 O          24.2796  -28.8461  -41.4995 O.2       4 UNK        -0.5039 
     34 N          25.4131  -27.6502  -43.0629 N.am      5 UNK        -0.4663 
     35 CA         26.1001  -26.7102  -42.1707 C.3       5 UNK         0.0242 
     36 CB         27.0277  -25.8070  -43.0003 C.3       5 UNK        -0.1982 
     37 C          26.8837  -27.4180  -41.0492 C.2       5 UNK         0.5017 
     38 O          27.7802  -28.2109  -41.3432 O.2       5 UNK        -0.5012 
     39 N          26.4944  -27.1339  -39.7979 N.am      6 UNK        -0.4439 
     40 CA         27.0011  -27.7053  -38.5418 C.3       6 UNK         0.0297 
     41 CB         28.5051  -27.4075  -38.3584 C.3       6 UNK        -0.2006 
     42 C          26.6709  -29.1988  -38.3203 C.2       6 UNK         0.4892 
     43 O          27.1904  -29.7809  -37.3657 O.2       6 UNK        -0.5089 
     44 N          25.8079  -29.7879  -39.1606 N.am      7 UNK        -0.4243 
     45 CA         25.3352  -31.1712  -39.0461 C.3       7 UNK         0.0196 
     46 CB         25.7634  -31.9623  -40.2926 C.3       7 UNK        -0.2007 
     47 C          23.8130  -31.2384  -38.8505 C.2       7 UNK         0.5020 
     48 O          23.3423  -32.1266  -38.1398 O.2       7 UNK        -0.5147 
     49 N          23.0686  -30.3137  -39.4785 N.am      8 UNK        -0.4734 
     50 CA         21.6124  -30.1212  -39.3877 C.3       8 UNK         0.0238 
     51 CB         21.2332  -29.5764  -37.9944 C.3       8 UNK        -0.1912 
     52 C          20.7845  -31.3628  -39.7831 C.2       8 UNK         0.5038 
     53 O          19.6966  -31.5714  -39.2436 O.2       8 UNK        -0.5046 
     54 N          21.3300  -32.1654  -40.7069 N.am      9 UNK        -0.4200 
     55 CA         20.8063  -33.4623  -41.1698 C.3       9 UNK         0.0839 
     56 C          20.8783  -34.5985  -40.1032 C.2       9 UNK         0.5513 
     57 N          21.6136  -34.4438  -39.0075 N.am      9 UNK        -0.7519 
     58 O          20.2837  -35.6581  -40.2849 O.2       9 UNK        -0.4960 
     59 C59        19.4074  -33.3684  -41.8480 C.3       10 UNK        -0.0876 
     60 S60        19.3553  -32.1674  -43.2189 S.3       10 UNK        -0.2414 
     61 C61        17.5847  -32.2467  -43.6548 C.3       10 UNK         0.0169 
     62 H62        19.7654  -28.7189  -41.8635 H         1 UNK         0.0903 
     63 H63        18.8653  -29.2426  -43.2794 H         1 UNK         0.0903 
     64 H64        18.2530  -29.6073  -41.6593 H         1 UNK         0.0903 
     65 H65        16.8746  -28.1228  -43.8588 H         1 UNK         0.3096 
     66 H66        15.8319  -25.9368  -42.3626 H         1 UNK         0.1121 
     67 H67        15.3990  -26.5583  -45.3321 H         1 UNK         0.0849 
     68 H68        14.4218  -25.4992  -44.3508 H         1 UNK         0.0849 
     69 H69        13.3660  -29.7064  -45.0863 H         1 UNK         0.0865 
     70 H70        13.8145  -28.3779  -46.1181 H         1 UNK         0.0865 
     71 H71        15.2862  -30.7845  -43.6257 H         1 UNK         0.1346 
     72 H72        18.8745  -31.3429  -45.9093 H         1 UNK         0.1412 
     73 H73        15.9681  -28.4587  -47.1648 H         1 UNK         0.1426 
     74 H74        19.0701  -30.3252  -48.0875 H         1 UNK         0.0716 
     75 H75        17.7542  -29.3818  -48.7346 H         1 UNK         0.0716 
     76 H76        21.1484  -29.2484  -46.6731 H         1 UNK         0.0695 
     77 H77        19.8988  -28.9540  -45.4921 H         1 UNK         0.0695 
     78 H78        22.0197  -26.9224  -46.3997 H         1 UNK         0.0983 
     79 H79        20.0921  -26.3987  -44.2416 H         1 UNK         0.3095 
     80 H80        19.4469  -23.7312  -44.3312 H         1 UNK         0.0454 
     81 H81        17.6435  -22.6503  -45.7084 H         1 UNK         0.0851 
     82 H82        18.0198  -23.7236  -47.0554 H         1 UNK         0.0851 
     83 H83        19.1964  -22.5335  -46.5142 H         1 UNK         0.0851 
     84 H84        18.0612  -26.1237  -45.0978 H         1 UNK         0.2976 
     85 H85        23.4123  -28.7623  -45.7275 H         1 UNK         0.3116 
     86 H86        24.7656  -29.8949  -44.3679 H         1 UNK         0.0646 
     87 H87        22.2289  -30.2424  -42.6823 H         1 UNK         0.0847 
     88 H88        23.6442  -31.2886  -42.6546 H         1 UNK         0.0847 
     89 H89        22.6514  -31.2008  -44.0956 H         1 UNK         0.0847 
     90 H90        25.5940  -27.5449  -44.0506 H         1 UNK         0.3040 
     91 H91        25.3311  -26.0792  -41.7200 H         1 UNK         0.1015 
     92 H92        27.7913  -26.3846  -43.5229 H         1 UNK         0.0786 
     93 H93        27.5435  -25.0874  -42.3631 H         1 UNK         0.0786 
     94 H94        26.4694  -25.2373  -43.7435 H         1 UNK         0.0786 
     95 H95        25.7264  -26.4855  -39.6851 H         1 UNK         0.3172 
     96 H96        26.4712  -27.1737  -37.7501 H         1 UNK         0.0595 
     97 H97        29.1201  -27.9708  -39.0606 H         1 UNK         0.0839 
     98 H98        28.8379  -27.6747  -37.3546 H         1 UNK         0.0839 
     99 H99        28.7212  -26.3482  -38.4963 H         1 UNK         0.0839 
    100 H100       25.4224  -29.2417  -39.9244 H         1 UNK         0.2998 
    101 H101       25.7806  -31.6568  -38.1752 H         1 UNK         0.0822 
    102 H102       26.8487  -32.0519  -40.3427 H         1 UNK         0.0787 
    103 H103       25.3548  -32.9738  -40.2792 H         1 UNK         0.0787 
    104 H104       25.4315  -31.4816  -41.2116 H         1 UNK         0.0787 
    105 H105       23.5398  -29.6792  -40.1230 H         1 UNK         0.3055 
    106 H106       21.3643  -29.3518  -40.1205 H         1 UNK         0.1106 
    107 H107       20.1793  -29.2982  -37.9543 H         1 UNK         0.0828 
    108 H108       21.4049  -30.3165  -37.2122 H         1 UNK         0.0828 
    109 H109       21.8102  -28.6856  -37.7465 H         1 UNK         0.0828 
    110 H110       22.2387  -31.9138  -41.0629 H         1 UNK         0.2931 
    111 H111       21.5064  -33.7791  -41.9436 H         1 UNK         0.0412 
    112 H112       22.1187  -33.5829  -38.8266 H         1 UNK         0.3472 
    113 H113       21.6559  -35.1950  -38.3373 H         1 UNK         0.3472 
    114 H114       18.6440  -33.1049  -41.1145 H         1 UNK         0.0970 
    115 H115       19.1155  -34.3393  -42.2524 H         1 UNK         0.0970 
    116 H116       17.3673  -33.2253  -44.0846 H         1 UNK         0.0612 
    117 H117       17.0006  -32.1699  -42.7361 H         1 UNK         0.0612 
@<TRIPOS>BOND
     1    1    2 1    
     2    1   62 1    
     3    1   63 1    
     4    1   64 1    
     5    2    3 2    
     6    2    4 am   BACKBONE|DICT|INTERRES
     7    4    5 1    
     8    4   65 1    
     9    5    6 1    
    10    5   25 1    
    11    5   66 1    
    12    6    7 1    
    13    6   67 1    
    14    6   68 1    
    15    7    8 1    
    16    8    9 1    
    17    8   69 1    
    18    8   70 1    
    19    9   10 ar   
    20    9   14 ar   
    21   10   11 ar   
    22   10   71 1    
    23   11   12 ar   
    24   11   61 1    
    25   12   13 ar   
    26   12   72 1    
    27   13   14 ar   
    28   13   15 1    
    29   14   73 1    
    30   15   16 1    
    31   15   74 1    
    32   15   75 1    
    33   16   17 1    
    34   17   18 1    
    35   17   76 1    
    36   17   77 1    
    37   18   19 1    
    38   18   27 1    
    39   18   78 1    
    40   19   20 am   BACKBONE|DICT|INTERRES
    41   19   79 1    
    42   20   21 2    
    43   20   22 1    
    44   22   23 1    
    45   22   24 1    
    46   22   80 1    
    47   23   81 1    
    48   23   82 1    
    49   23   83 1    
    50   24   25 am   BACKBONE|DICT|INTERRES
    51   24   84 1    
    52   25   26 2    
    53   27   28 2    
    54   27   29 am   BACKBONE|DICT|INTERRES
    55   29   30 1    
    56   29   85 1    
    57   30   31 1    
    58   30   32 1    
    59   30   86 1    
    60   31   87 1    
    61   31   88 1    
    62   31   89 1    
    63   32   33 2    
    64   32   34 am   BACKBONE|DICT|INTERRES
    65   34   35 1    
    66   34   90 1    
    67   35   36 1    
    68   35   37 1    
    69   35   91 1    
    70   36   92 1    
    71   36   93 1    
    72   36   94 1    
    73   37   38 2    
    74   37   39 am   BACKBONE|DICT|INTERRES
    75   39   40 1    
    76   39   95 1    
    77   40   41 1    
    78   40   42 1    
    79   40   96 1    
    80   41   97 1    
    81   41   98 1    
    82   41   99 1    
    83   42   43 2    
    84   42   44 am   BACKBONE|DICT|INTERRES
    85   44   45 1    
    86   44  100 1    
    87   45   46 1    
    88   45   47 1    
    89   45  101 1    
    90   46  102 1    
    91   46  103 1    
    92   46  104 1    
    93   47   48 2    
    94   47   49 am   BACKBONE|DICT|INTERRES
    95   49   50 1    
    96   49  105 1    
    97   50   51 1    
    98   50   52 1    
    99   50  106 1    
   100   51  107 1    
   101   51  108 1    
   102   51  109 1    
   103   52   53 2    
   104   52   54 am   BACKBONE|DICT|INTERRES
   105   54   55 1    
   106   54  110 1    
   107   55   56 1    
   108   55   59 1    
   109   55  111 1    
   110   56   57 am   BACKBONE|DICT|INTERRES
   111   56   58 2    
   112   57  112 1    
   113   57  113 1    
   114   59   60 1    
   115   59  114 1    
   116   59  115 1    
   117   60   61 1    
   118   61  116 1    
   119   61  117 1    
@<TRIPOS>SUBSTRUCTURE
     1 UNK         1 GROUP             0       ****    0 ROOT    
