@<TRIPOS>MOLECULE
3R8
117   119    1
SMALL
USER_CHARGES


@<TRIPOS>ATOM
      1 CA         18.8527  -25.6034  -38.8244 C.3       0 UNK        -0.2013 
      2 C          18.1335  -25.6566  -40.1636 C.2       0 UNK         0.4866 
      3 O          16.9152  -25.8303  -40.1969 O.2       0 UNK        -0.5176 
      4 N          18.8741  -25.5013  -41.2648 N.am      1 UNK        -0.4884 
      5 CA         18.3721  -25.4843  -42.6366 C.3       1 UNK         0.0853 
      6 C6         17.9650  -26.8935  -43.1497 C.3       10 UNK        -0.0849 
      7 S7         16.6837  -26.7922  -44.4465 S.3       10 UNK        -0.2776 
      8 C8         16.0209  -28.4895  -44.4404 C.3       10 UNK         0.0316 
      9 C9         17.0702  -29.5149  -44.8469 C.ar      10 UNK        -0.0863 
     10 C10        17.4236  -30.5491  -43.9755 C.ar      10 UNK        -0.1009 
     11 C11        18.3940  -31.4864  -44.3426 C.ar      10 UNK        -0.0712 
     12 C12        19.0260  -31.3736  -45.5849 C.ar      10 UNK        -0.0894 
     13 C13        18.6746  -30.3485  -46.4691 C.ar      10 UNK        -0.0745 
     14 C14        17.6838  -29.4341  -46.1000 C.ar      10 UNK        -0.0972 
     15 C15        19.3597  -30.2349  -47.8253 C.3       10 UNK         0.0209 
     16 S16        20.1096  -28.5963  -48.0994 S.3       10 UNK        -0.2568 
     17 C17        21.3479  -28.5395  -46.7633 C.3       10 UNK        -0.0983 
     18 CA         21.9523  -27.1246  -46.6026 C.3       3 UNK         0.0876 
     19 N          20.9368  -26.1370  -46.2231 N.am      3 UNK        -0.4424 
     20 C          21.0969  -24.8093  -46.2979 C.2       2 UNK         0.4918 
     21 O          22.1037  -24.2665  -46.7556 O.2       2 UNK        -0.4875 
     22 CA         19.9354  -23.9285  -45.8006 C.3       2 UNK         0.0481 
     23 CB         19.0634  -23.4816  -46.9849 C.3       2 UNK        -0.1831 
     24 N          19.0848  -24.5763  -44.7977 N.am      2 UNK        -0.4498 
     25 C          19.4338  -24.8077  -43.5253 C.2       1 UNK         0.5027 
     26 O          20.5301  -24.5012  -43.0467 O.2       1 UNK        -0.4969 
     27 C          23.1049  -27.1461  -45.5800 C.2       3 UNK         0.5005 
     28 O          22.8890  -26.8436  -44.4041 O.2       3 UNK        -0.5279 
     29 N          24.2986  -27.5527  -46.0378 N.am      4 UNK        -0.4463 
     30 CA         25.5549  -27.5764  -45.2736 C.3       4 UNK         0.0283 
     31 CB         26.6952  -28.0390  -46.1955 C.3       4 UNK        -0.1875 
     32 C          25.5359  -28.4216  -43.9846 C.2       4 UNK         0.4949 
     33 O          26.3509  -28.1727  -43.0960 O.2       4 UNK        -0.5039 
     34 N          24.6095  -29.3860  -43.8924 N.am      5 UNK        -0.4663 
     35 CA         24.3430  -30.1678  -42.6824 C.3       5 UNK         0.0242 
     36 CB         23.4219  -31.3480  -43.0336 C.3       5 UNK        -0.1982 
     37 C          23.7248  -29.3368  -41.5426 C.2       5 UNK         0.5017 
     38 O          23.9181  -29.6905  -40.3798 O.2       5 UNK        -0.5012 
     39 N          22.9995  -28.2590  -41.8845 N.am      6 UNK        -0.4439 
     40 CA         22.2507  -27.3782  -40.9845 C.3       6 UNK         0.0297 
     41 CB         23.2181  -26.4731  -40.1885 C.3       6 UNK        -0.2006 
     42 C          21.2564  -28.1735  -40.1146 C.2       6 UNK         0.4892 
     43 O          20.3214  -28.7576  -40.6604 O.2       6 UNK        -0.5089 
     44 N          21.4730  -28.1858  -38.7933 N.am      7 UNK        -0.4243 
     45 CA         20.6884  -28.9574  -37.8278 C.3       7 UNK         0.0196 
     46 CB         20.7042  -28.2168  -36.4793 C.3       7 UNK        -0.2007 
     47 C          21.2034  -30.3975  -37.6429 C.2       7 UNK         0.5020 
     48 O          20.4921  -31.2108  -37.0534 O.2       7 UNK        -0.5147 
     49 N          22.4194  -30.7018  -38.1171 N.am      8 UNK        -0.4734 
     50 CA         23.1112  -31.9783  -37.9143 C.3       8 UNK         0.0238 
     51 CB         24.6034  -31.7005  -37.6492 C.3       8 UNK        -0.1912 
     52 C          22.8892  -32.9465  -39.0908 C.2       8 UNK         0.5038 
     53 O          23.8359  -33.5926  -39.5450 O.2       8 UNK        -0.5046 
     54 N          21.6405  -33.0337  -39.5624 N.am      9 UNK        -0.4200 
     55 CA         21.1801  -34.0002  -40.5686 C.3       9 UNK         0.0839 
     56 C          21.2757  -35.4662  -40.0627 C.2       9 UNK         0.5513 
     57 N          21.5990  -36.4049  -40.9415 N.am      9 UNK        -0.7519 
     58 O          21.0158  -35.7629  -38.8981 O.2       9 UNK        -0.4960 
     59 C59        19.7354  -33.6792  -41.0235 C.3       10 UNK        -0.0876 
     60 S60        19.6311  -32.1008  -41.9332 S.3       10 UNK        -0.2414 
     61 C61        18.7252  -32.6438  -43.4132 C.3       10 UNK         0.0169 
     62 H62        19.9275  -25.4663  -38.9408 H         1 UNK         0.0903 
     63 H63        18.4681  -24.7801  -38.2232 H         1 UNK         0.0903 
     64 H64        18.6849  -26.5311  -38.2788 H         1 UNK         0.0903 
     65 H65        19.8621  -25.2844  -41.2057 H         1 UNK         0.3096 
     66 H66        17.4962  -24.8308  -42.6410 H         1 UNK         0.1121 
     67 H67        18.8261  -27.4568  -43.5160 H         1 UNK         0.0849 
     68 H68        17.5536  -27.4894  -42.3335 H         1 UNK         0.0849 
     69 H69        15.6148  -28.7118  -43.4523 H         1 UNK         0.0865 
     70 H70        15.1826  -28.5452  -45.1362 H         1 UNK         0.0865 
     71 H71        16.9440  -30.6314  -43.0095 H         1 UNK         0.1346 
     72 H72        19.7816  -32.0933  -45.8689 H         1 UNK         0.1412 
     73 H73        17.4074  -28.6402  -46.7808 H         1 UNK         0.1426 
     74 H74        18.6236  -30.4209  -48.6085 H         1 UNK         0.0716 
     75 H75        20.1316  -30.9977  -47.9391 H         1 UNK         0.0716 
     76 H76        20.8898  -28.8633  -45.8265 H         1 UNK         0.0695 
     77 H77        22.1213  -29.2728  -47.0000 H         1 UNK         0.0695 
     78 H78        22.3692  -26.8165  -47.5644 H         1 UNK         0.0983 
     79 H79        20.0839  -26.5014  -45.8284 H         1 UNK         0.3095 
     80 H80        20.3726  -23.0362  -45.3474 H         1 UNK         0.0454 
     81 H81        19.6618  -22.9670  -47.7381 H         1 UNK         0.0851 
     82 H82        18.5820  -24.3287  -47.4753 H         1 UNK         0.0851 
     83 H83        18.2839  -22.7893  -46.6662 H         1 UNK         0.0851 
     84 H84        18.1700  -24.8823  -45.1038 H         1 UNK         0.2976 
     85 H85        24.3738  -27.8089  -47.0125 H         1 UNK         0.3116 
     86 H86        25.7611  -26.5478  -44.9704 H         1 UNK         0.0646 
     87 H87        27.6501  -28.0378  -45.6677 H         1 UNK         0.0847 
     88 H88        26.8056  -27.3793  -47.0563 H         1 UNK         0.0847 
     89 H89        26.5301  -29.0519  -46.5648 H         1 UNK         0.0847 
     90 H90        23.9926  -29.5303  -44.6777 H         1 UNK         0.3040 
     91 H91        25.2920  -30.5669  -42.3172 H         1 UNK         0.1015 
     92 H92        23.8691  -31.9927  -43.7902 H         1 UNK         0.0786 
     93 H93        22.4530  -31.0104  -43.4050 H         1 UNK         0.0786 
     94 H94        23.2331  -31.9654  -42.1543 H         1 UNK         0.0786 
     95 H95        22.9384  -28.0091  -42.8687 H         1 UNK         0.3172 
     96 H96        21.6487  -26.7333  -41.6258 H         1 UNK         0.0595 
     97 H97        23.8274  -25.8737  -40.8653 H         1 UNK         0.0839 
     98 H98        23.9008  -27.0446  -39.5587 H         1 UNK         0.0839 
     99 H99        22.6752  -25.7742  -39.5508 H         1 UNK         0.0839 
    100 H100       22.2780  -27.6932  -38.4339 H         1 UNK         0.2998 
    101 H101       19.6534  -29.0208  -38.1712 H         1 UNK         0.0822 
    102 H102       20.3175  -27.2023  -36.5732 H         1 UNK         0.0787 
    103 H103       20.0831  -28.7311  -35.7445 H         1 UNK         0.0787 
    104 H104       21.7115  -28.1533  -36.0656 H         1 UNK         0.0787 
    105 H105       22.9021  -30.0355  -38.7137 H         1 UNK         0.3055 
    106 H106       22.7111  -32.4743  -37.0269 H         1 UNK         0.1106 
    107 H107       25.0915  -31.2538  -38.5160 H         1 UNK         0.0828 
    108 H108       24.7374  -31.0255  -36.8039 H         1 UNK         0.0828 
    109 H109       25.1380  -32.6215  -37.4129 H         1 UNK         0.0828 
    110 H110       20.9265  -32.4714  -39.1227 H         1 UNK         0.2931 
    111 H111       21.8392  -33.9048  -41.4340 H         1 UNK         0.0412 
    112 H112       21.6506  -37.3649  -40.6372 H         1 UNK         0.3472 
    113 H113       21.8059  -36.1727  -41.9008 H         1 UNK         0.3472 
    114 H114       19.0603  -33.6355  -40.1667 H         1 UNK         0.0970 
    115 H115       19.3547  -34.4800  -41.6608 H         1 UNK         0.0970 
    116 H116       17.7972  -33.1301  -43.1084 H         1 UNK         0.0612 
    117 H117       19.3154  -33.3993  -43.9344 H         1 UNK         0.0612 
@<TRIPOS>BOND
     1    1    2 1    
     2    1   62 1    
     3    1   63 1    
     4    1   64 1    
     5    2    3 2    
     6    2    4 am   BACKBONE|DICT|INTERRES
     7    4    5 1    
     8    4   65 1    
     9    5    6 1    
    10    5   25 1    
    11    5   66 1    
    12    6    7 1    
    13    6   67 1    
    14    6   68 1    
    15    7    8 1    
    16    8    9 1    
    17    8   69 1    
    18    8   70 1    
    19    9   10 ar   
    20    9   14 ar   
    21   10   11 ar   
    22   10   71 1    
    23   11   12 ar   
    24   11   61 1    
    25   12   13 ar   
    26   12   72 1    
    27   13   14 ar   
    28   13   15 1    
    29   14   73 1    
    30   15   16 1    
    31   15   74 1    
    32   15   75 1    
    33   16   17 1    
    34   17   18 1    
    35   17   76 1    
    36   17   77 1    
    37   18   19 1    
    38   18   27 1    
    39   18   78 1    
    40   19   20 am   BACKBONE|DICT|INTERRES
    41   19   79 1    
    42   20   21 2    
    43   20   22 1    
    44   22   23 1    
    45   22   24 1    
    46   22   80 1    
    47   23   81 1    
    48   23   82 1    
    49   23   83 1    
    50   24   25 am   BACKBONE|DICT|INTERRES
    51   24   84 1    
    52   25   26 2    
    53   27   28 2    
    54   27   29 am   BACKBONE|DICT|INTERRES
    55   29   30 1    
    56   29   85 1    
    57   30   31 1    
    58   30   32 1    
    59   30   86 1    
    60   31   87 1    
    61   31   88 1    
    62   31   89 1    
    63   32   33 2    
    64   32   34 am   BACKBONE|DICT|INTERRES
    65   34   35 1    
    66   34   90 1    
    67   35   36 1    
    68   35   37 1    
    69   35   91 1    
    70   36   92 1    
    71   36   93 1    
    72   36   94 1    
    73   37   38 2    
    74   37   39 am   BACKBONE|DICT|INTERRES
    75   39   40 1    
    76   39   95 1    
    77   40   41 1    
    78   40   42 1    
    79   40   96 1    
    80   41   97 1    
    81   41   98 1    
    82   41   99 1    
    83   42   43 2    
    84   42   44 am   BACKBONE|DICT|INTERRES
    85   44   45 1    
    86   44  100 1    
    87   45   46 1    
    88   45   47 1    
    89   45  101 1    
    90   46  102 1    
    91   46  103 1    
    92   46  104 1    
    93   47   48 2    
    94   47   49 am   BACKBONE|DICT|INTERRES
    95   49   50 1    
    96   49  105 1    
    97   50   51 1    
    98   50   52 1    
    99   50  106 1    
   100   51  107 1    
   101   51  108 1    
   102   51  109 1    
   103   52   53 2    
   104   52   54 am   BACKBONE|DICT|INTERRES
   105   54   55 1    
   106   54  110 1    
   107   55   56 1    
   108   55   59 1    
   109   55  111 1    
   110   56   57 am   BACKBONE|DICT|INTERRES
   111   56   58 2    
   112   57  112 1    
   113   57  113 1    
   114   59   60 1    
   115   59  114 1    
   116   59  115 1    
   117   60   61 1    
   118   61  116 1    
   119   61  117 1    
@<TRIPOS>SUBSTRUCTURE
     1 UNK         1 GROUP             0       ****    0 ROOT    
