@<TRIPOS>MOLECULE
3R8
117   119    1
SMALL
USER_CHARGES


@<TRIPOS>ATOM
      1 CA         13.9490  -23.4976  -43.5711 C.3       0 UNK        -0.2013 
      2 C          15.0660  -24.1460  -44.3744 C.2       0 UNK         0.4866 
      3 O          15.5842  -23.5354  -45.3105 O.2       0 UNK        -0.5176 
      4 N          15.4415  -25.3815  -44.0217 N.am      1 UNK        -0.4884 
      5 CA         16.5226  -26.1508  -44.6423 C.3       1 UNK         0.0853 
      6 C6         16.3123  -27.6838  -44.5043 C.3       10 UNK        -0.0849 
      7 S7         15.7140  -28.2981  -42.8793 S.3       10 UNK        -0.2776 
      8 C8         17.1631  -29.1050  -42.1132 C.3       10 UNK         0.0316 
      9 C9         17.8512  -30.0967  -43.0393 C.ar      10 UNK        -0.0863 
     10 C10        17.3423  -31.3843  -43.2290 C.ar      10 UNK        -0.1009 
     11 C11        17.9632  -32.2636  -44.1243 C.ar      10 UNK        -0.0712 
     12 C12        19.0765  -31.8351  -44.8559 C.ar      10 UNK        -0.0894 
     13 C13        19.5957  -30.5524  -44.6638 C.ar      10 UNK        -0.0745 
     14 C14        18.9997  -29.7062  -43.7278 C.ar      10 UNK        -0.0972 
     15 C15        20.7971  -30.0637  -45.4557 C.3       10 UNK         0.0209 
     16 S16        20.3799  -28.5577  -46.3976 S.3       10 UNK        -0.2568 
     17 C17        21.9576  -27.6436  -46.3463 C.3       10 UNK        -0.0983 
     18 CA         22.0625  -26.6118  -45.1907 C.3       3 UNK         0.0876 
     19 N          20.9230  -25.6857  -45.1592 N.am      3 UNK        -0.4424 
     20 C          20.8920  -24.5181  -44.5024 C.2       2 UNK         0.4918 
     21 O          21.8683  -24.0478  -43.9175 O.2       2 UNK        -0.4875 
     22 CA         19.5530  -23.7560  -44.4452 C.3       2 UNK         0.0481 
     23 CB         19.6097  -22.5165  -45.3523 C.3       2 UNK        -0.1831 
     24 N          18.3481  -24.5294  -44.7757 N.am      2 UNK        -0.4498 
     25 C          17.9029  -25.6403  -44.1688 C.2       1 UNK         0.5027 
     26 O          18.5219  -26.2221  -43.2771 O.2       1 UNK        -0.4969 
     27 C          22.3656  -27.2823  -43.8276 C.2       3 UNK         0.5005 
     28 O          23.3912  -27.9557  -43.7206 O.2       3 UNK        -0.5279 
     29 N          21.5180  -27.0645  -42.8050 N.am      4 UNK        -0.4463 
     30 CA         21.6494  -27.5454  -41.4202 C.3       4 UNK         0.0283 
     31 CB         20.5489  -26.9054  -40.5601 C.3       4 UNK        -0.1875 
     32 C          23.0181  -27.2987  -40.7561 C.2       4 UNK         0.4949 
     33 O          23.3985  -28.0574  -39.8645 O.2       4 UNK        -0.5039 
     34 N          23.7557  -26.2818  -41.2269 N.am      5 UNK        -0.4663 
     35 CA         25.1471  -25.9867  -40.8657 C.3       5 UNK         0.0242 
     36 CB         25.5880  -24.7076  -41.5952 C.3       5 UNK        -0.1982 
     37 C          26.1384  -27.1362  -41.1476 C.2       5 UNK         0.5017 
     38 O          27.2002  -27.1716  -40.5256 O.2       5 UNK        -0.5012 
     39 N          25.7713  -28.0710  -42.0386 N.am      6 UNK        -0.4439 
     40 CA         26.4877  -29.3251  -42.2925 C.3       6 UNK         0.0297 
     41 CB         25.9993  -29.9139  -43.6273 C.3       6 UNK        -0.2006 
     42 C          26.3447  -30.3699  -41.1637 C.2       6 UNK         0.4892 
     43 O          27.0000  -31.4097  -41.2420 O.2       6 UNK        -0.5089 
     44 N          25.4966  -30.0959  -40.1580 N.am      7 UNK        -0.4243 
     45 CA         25.1489  -30.9525  -39.0166 C.3       7 UNK         0.0196 
     46 CB         26.3842  -31.2818  -38.1503 C.3       7 UNK        -0.2007 
     47 C          24.3393  -32.1975  -39.4269 C.2       7 UNK         0.5020 
     48 O          24.4483  -33.2462  -38.7895 O.2       7 UNK        -0.5147 
     49 N          23.5193  -32.0503  -40.4716 N.am      8 UNK        -0.4734 
     50 CA         22.5781  -33.0416  -40.9804 C.3       8 UNK         0.0238 
     51 CB         23.2991  -33.9825  -41.9630 C.3       8 UNK        -0.1912 
     52 C          21.4411  -32.2786  -41.6841 C.2       8 UNK         0.5038 
     53 O          21.7061  -31.1853  -42.1851 O.2       8 UNK        -0.5046 
     54 N          20.2182  -32.8174  -41.7828 N.am      9 UNK        -0.4200 
     55 CA         19.7069  -34.0326  -41.1280 C.3       9 UNK         0.0839 
     56 C          19.5164  -33.8370  -39.5994 C.2       9 UNK         0.5513 
     57 N          19.7080  -34.8880  -38.8153 N.am      9 UNK        -0.7519 
     58 O          19.1772  -32.7555  -39.1254 O.2       9 UNK        -0.4960 
     59 C59        18.3780  -34.5176  -41.7661 C.3       10 UNK        -0.0876 
     60 S60        18.5379  -34.9128  -43.5417 S.3       10 UNK        -0.2414 
     61 C61        17.4363  -33.6785  -44.3062 C.3       10 UNK         0.0169 
     62 H62        13.1134  -23.2482  -44.2245 H         1 UNK         0.0903 
     63 H63        13.5794  -24.1538  -42.7833 H         1 UNK         0.0903 
     64 H64        14.3058  -22.5782  -43.1077 H         1 UNK         0.0903 
     65 H65        14.9988  -25.8383  -43.2355 H         1 UNK         0.3096 
     66 H66        16.4899  -25.9527  -45.7168 H         1 UNK         0.1121 
     67 H67        17.1992  -28.2183  -44.8368 H         1 UNK         0.0849 
     68 H68        15.5453  -27.9799  -45.2215 H         1 UNK         0.0849 
     69 H69        16.8445  -29.6162  -41.2038 H         1 UNK         0.0865 
     70 H70        17.8625  -28.3350  -41.7930 H         1 UNK         0.0865 
     71 H71        16.4607  -31.6959  -42.6854 H         1 UNK         0.1346 
     72 H72        19.5441  -32.5077  -45.5621 H         1 UNK         0.1412 
     73 H73        19.4019  -28.7145  -43.5768 H         1 UNK         0.1426 
     74 H74        21.1529  -30.8284  -46.1475 H         1 UNK         0.0716 
     75 H75        21.6132  -29.8743  -44.7584 H         1 UNK         0.0716 
     76 H76        22.0494  -27.1165  -47.2971 H         1 UNK         0.0695 
     77 H77        22.7925  -28.3473  -46.3296 H         1 UNK         0.0695 
     78 H78        22.9467  -26.0055  -45.4003 H         1 UNK         0.0983 
     79 H79        20.0797  -26.0118  -45.6083 H         1 UNK         0.3095 
     80 H80        19.4334  -23.4140  -43.4154 H         1 UNK         0.0454 
     81 H81        19.6935  -22.7909  -46.4045 H         1 UNK         0.0851 
     82 H82        20.4695  -21.8902  -45.1095 H         1 UNK         0.0851 
     83 H83        18.7200  -21.8972  -45.2360 H         1 UNK         0.0851 
     84 H84        17.7177  -24.0956  -45.4401 H         1 UNK         0.2976 
     85 H85        20.6781  -26.5330  -43.0037 H         1 UNK         0.3116 
     86 H86        21.4883  -28.6242  -41.4411 H         1 UNK         0.0646 
     87 H87        19.5565  -27.1372  -40.9394 H         1 UNK         0.0847 
     88 H88        20.6455  -25.8195  -40.5260 H         1 UNK         0.0847 
     89 H89        20.5922  -27.2701  -39.5327 H         1 UNK         0.0847 
     90 H90        23.3512  -25.7139  -41.9583 H         1 UNK         0.3040 
     91 H91        25.1735  -25.7994  -39.7901 H         1 UNK         0.1015 
     92 H92        26.6110  -24.4378  -41.3287 H         1 UNK         0.0786 
     93 H93        24.9533  -23.8610  -41.3325 H         1 UNK         0.0786 
     94 H94        25.5542  -24.8300  -42.6786 H         1 UNK         0.0786 
     95 H95        24.8868  -27.9550  -42.5310 H         1 UNK         0.3172 
     96 H96        27.5507  -29.0958  -42.3903 H         1 UNK         0.0595 
     97 H97        24.9486  -30.2041  -43.5779 H         1 UNK         0.0839 
     98 H98        26.5696  -30.8040  -43.8961 H         1 UNK         0.0839 
     99 H99        26.1109  -29.1997  -44.4432 H         1 UNK         0.0839 
    100 H100       24.9735  -29.2262  -40.2019 H         1 UNK         0.2998 
    101 H101       24.4748  -30.3560  -38.3998 H         1 UNK         0.0822 
    102 H102       26.9337  -30.3791  -37.8832 H         1 UNK         0.0787 
    103 H103       26.0884  -31.7676  -37.2197 H         1 UNK         0.0787 
    104 H104       27.0721  -31.9564  -38.6606 H         1 UNK         0.0787 
    105 H105       23.4475  -31.1480  -40.9276 H         1 UNK         0.3055 
    106 H106       22.1948  -33.6147  -40.1368 H         1 UNK         0.1106 
    107 H107       23.7261  -33.4328  -42.8029 H         1 UNK         0.0828 
    108 H108       22.6143  -34.7249  -42.3740 H         1 UNK         0.0828 
    109 H109       24.1083  -34.5242  -41.4730 H         1 UNK         0.0828 
    110 H110       19.5246  -32.2930  -42.2974 H         1 UNK         0.2931 
    111 H111       20.4453  -34.8221  -41.2775 H         1 UNK         0.0412 
    112 H112       19.9715  -35.7854  -39.1931 H         1 UNK         0.3472 
    113 H113       19.5787  -34.7856  -37.8203 H         1 UNK         0.3472 
    114 H114       18.0313  -35.4253  -41.2682 H         1 UNK         0.0970 
    115 H115       17.5872  -33.7808  -41.6165 H         1 UNK         0.0970 
    116 H116       17.3484  -33.8963  -45.3715 H         1 UNK         0.0612 
    117 H117       16.4332  -33.7800  -43.8889 H         1 UNK         0.0612 
@<TRIPOS>BOND
     1    1    2 1    
     2    1   62 1    
     3    1   63 1    
     4    1   64 1    
     5    2    3 2    
     6    2    4 am   BACKBONE|DICT|INTERRES
     7    4    5 1    
     8    4   65 1    
     9    5    6 1    
    10    5   25 1    
    11    5   66 1    
    12    6    7 1    
    13    6   67 1    
    14    6   68 1    
    15    7    8 1    
    16    8    9 1    
    17    8   69 1    
    18    8   70 1    
    19    9   10 ar   
    20    9   14 ar   
    21   10   11 ar   
    22   10   71 1    
    23   11   12 ar   
    24   11   61 1    
    25   12   13 ar   
    26   12   72 1    
    27   13   14 ar   
    28   13   15 1    
    29   14   73 1    
    30   15   16 1    
    31   15   74 1    
    32   15   75 1    
    33   16   17 1    
    34   17   18 1    
    35   17   76 1    
    36   17   77 1    
    37   18   19 1    
    38   18   27 1    
    39   18   78 1    
    40   19   20 am   BACKBONE|DICT|INTERRES
    41   19   79 1    
    42   20   21 2    
    43   20   22 1    
    44   22   23 1    
    45   22   24 1    
    46   22   80 1    
    47   23   81 1    
    48   23   82 1    
    49   23   83 1    
    50   24   25 am   BACKBONE|DICT|INTERRES
    51   24   84 1    
    52   25   26 2    
    53   27   28 2    
    54   27   29 am   BACKBONE|DICT|INTERRES
    55   29   30 1    
    56   29   85 1    
    57   30   31 1    
    58   30   32 1    
    59   30   86 1    
    60   31   87 1    
    61   31   88 1    
    62   31   89 1    
    63   32   33 2    
    64   32   34 am   BACKBONE|DICT|INTERRES
    65   34   35 1    
    66   34   90 1    
    67   35   36 1    
    68   35   37 1    
    69   35   91 1    
    70   36   92 1    
    71   36   93 1    
    72   36   94 1    
    73   37   38 2    
    74   37   39 am   BACKBONE|DICT|INTERRES
    75   39   40 1    
    76   39   95 1    
    77   40   41 1    
    78   40   42 1    
    79   40   96 1    
    80   41   97 1    
    81   41   98 1    
    82   41   99 1    
    83   42   43 2    
    84   42   44 am   BACKBONE|DICT|INTERRES
    85   44   45 1    
    86   44  100 1    
    87   45   46 1    
    88   45   47 1    
    89   45  101 1    
    90   46  102 1    
    91   46  103 1    
    92   46  104 1    
    93   47   48 2    
    94   47   49 am   BACKBONE|DICT|INTERRES
    95   49   50 1    
    96   49  105 1    
    97   50   51 1    
    98   50   52 1    
    99   50  106 1    
   100   51  107 1    
   101   51  108 1    
   102   51  109 1    
   103   52   53 2    
   104   52   54 am   BACKBONE|DICT|INTERRES
   105   54   55 1    
   106   54  110 1    
   107   55   56 1    
   108   55   59 1    
   109   55  111 1    
   110   56   57 am   BACKBONE|DICT|INTERRES
   111   56   58 2    
   112   57  112 1    
   113   57  113 1    
   114   59   60 1    
   115   59  114 1    
   116   59  115 1    
   117   60   61 1    
   118   61  116 1    
   119   61  117 1    
@<TRIPOS>SUBSTRUCTURE
     1 UNK         1 GROUP             0       ****    0 ROOT    
