@<TRIPOS>MOLECULE
3R8
117   119    1
SMALL
USER_CHARGES


@<TRIPOS>ATOM
      1 CA         12.6094  -22.9097  -44.3036 C.3       0 UNK        -0.2013 
      2 C          13.8616  -23.4297  -44.9935 C.2       0 UNK         0.4866 
      3 O          14.4701  -22.7072  -45.7830 O.2       0 UNK        -0.5176 
      4 N          14.2516  -24.6787  -44.7029 N.am      1 UNK        -0.4884 
      5 CA         15.4399  -25.3350  -45.2670 C.3       1 UNK         0.0853 
      6 C6         15.3662  -26.8755  -45.0839 C.3       10 UNK        -0.0849 
      7 S7         16.2732  -27.7878  -46.3790 S.3       10 UNK        -0.2776 
      8 C8         16.1059  -29.5113  -45.8093 C.3       10 UNK         0.0316 
      9 C9         17.1562  -29.8692  -44.7669 C.ar      10 UNK        -0.0863 
     10 C10        18.4052  -30.3611  -45.1661 C.ar      10 UNK        -0.1009 
     11 C11        19.3764  -30.6858  -44.2135 C.ar      10 UNK        -0.0712 
     12 C12        19.0885  -30.5204  -42.8577 C.ar      10 UNK        -0.0894 
     13 C13        17.8548  -30.0123  -42.4474 C.ar      10 UNK        -0.0745 
     14 C14        16.8835  -29.7063  -43.4045 C.ar      10 UNK        -0.0972 
     15 C15        17.6010  -29.7416  -40.9734 C.3       10 UNK         0.0209 
     16 S16        17.8098  -27.9746  -40.5746 S.3       10 UNK        -0.2568 
     17 C17        19.5492  -27.6475  -41.0422 C.3       10 UNK        -0.0983 
     18 CA         19.6849  -27.0791  -42.4842 C.3       3 UNK         0.0876 
     19 N          18.8614  -25.9033  -42.7674 N.am      3 UNK        -0.4424 
     20 C          18.8394  -24.7178  -42.1499 C.2       2 UNK         0.4918 
     21 O          19.5753  -24.4257  -41.2059 O.2       2 UNK        -0.4875 
     22 CA         17.8107  -23.6799  -42.6484 C.3       2 UNK         0.0481 
     23 CB         18.5125  -22.5076  -43.3620 C.3       2 UNK        -0.1831 
     24 N          16.7106  -24.2277  -43.4649 N.am      2 UNK        -0.4498 
     25 C          16.7589  -24.7660  -44.6959 C.2       1 UNK         0.5027 
     26 O          17.7947  -24.8634  -45.3531 O.2       1 UNK        -0.4969 
     27 C          21.1446  -26.8592  -42.9175 C.2       3 UNK         0.5005 
     28 O          21.5884  -27.5075  -43.8657 O.2       3 UNK        -0.5279 
     29 N          21.8394  -25.9247  -42.2511 N.am      4 UNK        -0.4463 
     30 CA         23.1688  -25.3527  -42.5293 C.3       4 UNK         0.0283 
     31 CB         23.1336  -24.5428  -43.8393 C.3       4 UNK        -0.1875 
     32 C          24.3734  -26.3183  -42.5333 C.2       4 UNK         0.4949 
     33 O          25.4522  -25.9237  -42.0892 O.2       4 UNK        -0.5039 
     34 N          24.1940  -27.5335  -43.0588 N.am      5 UNK        -0.4663 
     35 CA         25.2124  -28.5716  -43.2159 C.3       5 UNK         0.0242 
     36 CB         24.6127  -29.7155  -44.0493 C.3       5 UNK        -0.1982 
     37 C          25.7331  -29.1189  -41.8775 C.2       5 UNK         0.5017 
     38 O          25.0096  -29.1054  -40.8770 O.2       5 UNK        -0.5012 
     39 N          26.9631  -29.6513  -41.9086 N.am      6 UNK        -0.4439 
     40 CA         27.6044  -30.3560  -40.7961 C.3       6 UNK         0.0297 
     41 CB         29.0305  -30.7630  -41.1993 C.3       6 UNK        -0.2006 
     42 C          26.7884  -31.5884  -40.3749 C.2       6 UNK         0.4892 
     43 O          26.3569  -32.3545  -41.2409 O.2       6 UNK        -0.5089 
     44 N          26.5533  -31.7144  -39.0607 N.am      7 UNK        -0.4243 
     45 CA         25.7022  -32.7215  -38.4087 C.3       7 UNK         0.0196 
     46 CB         26.3463  -34.1209  -38.5124 C.3       7 UNK        -0.2007 
     47 C          24.2379  -32.7122  -38.9022 C.2       7 UNK         0.5020 
     48 O          23.5648  -33.7409  -38.8191 O.2       7 UNK        -0.5147 
     49 N          23.7815  -31.5657  -39.4372 N.am      8 UNK        -0.4734 
     50 CA         22.4821  -31.3399  -40.0837 C.3       8 UNK         0.0238 
     51 CB         21.3579  -31.2924  -39.0277 C.3       8 UNK        -0.1912 
     52 C          22.2027  -32.3442  -41.2209 C.2       8 UNK         0.5038 
     53 O          21.0863  -32.8525  -41.3168 O.2       8 UNK        -0.5046 
     54 N          23.2458  -32.6355  -42.0148 N.am      9 UNK        -0.4200 
     55 CA         23.3136  -33.6472  -43.0854 C.3       9 UNK         0.0839 
     56 C          22.9616  -35.1116  -42.6752 C.2       9 UNK         0.5513 
     57 N          22.9563  -35.4603  -41.3931 N.am      9 UNK        -0.7519 
     58 O          22.7405  -35.9635  -43.5325 O.2       9 UNK        -0.4960 
     59 C59        22.7142  -33.1843  -44.4512 C.3       10 UNK        -0.0876 
     60 S60        20.8989  -32.9779  -44.5193 S.3       10 UNK        -0.2414 
     61 C61        20.7571  -31.1676  -44.6301 C.3       10 UNK         0.0169 
     62 H62        12.1713  -23.6522  -43.6370 H         1 UNK         0.0903 
     63 H63        12.8460  -22.0235  -43.7153 H         1 UNK         0.0903 
     64 H64        11.8593  -22.6359  -45.0451 H         1 UNK         0.0903 
     65 H65        13.7048  -25.2294  -44.0551 H         1 UNK         0.3096 
     66 H66        15.4431  -25.1164  -46.3379 H         1 UNK         0.1121 
     67 H67        14.3287  -27.2095  -45.1417 H         1 UNK         0.0849 
     68 H68        15.7205  -27.1742  -44.0960 H         1 UNK         0.0849 
     69 H69        15.1015  -29.6796  -45.4175 H         1 UNK         0.0865 
     70 H70        16.2059  -30.1745  -46.6700 H         1 UNK         0.0865 
     71 H71        18.6257  -30.4789  -46.2184 H         1 UNK         0.1346 
     72 H72        19.8427  -30.7528  -42.1210 H         1 UNK         0.1412 
     73 H73        15.9266  -29.3159  -43.0864 H         1 UNK         0.1426 
     74 H74        16.5859  -30.0462  -40.7149 H         1 UNK         0.0716 
     75 H75        18.2668  -30.3371  -40.3479 H         1 UNK         0.0716 
     76 H76        20.1273  -28.5664  -40.9338 H         1 UNK         0.0695 
     77 H77        19.9615  -26.9503  -40.3116 H         1 UNK         0.0695 
     78 H78        19.2986  -27.8323  -43.1690 H         1 UNK         0.0983 
     79 H79        18.2835  -25.9836  -43.5931 H         1 UNK         0.3095 
     80 H80        17.3335  -23.2773  -41.7537 H         1 UNK         0.0454 
     81 H81        17.7965  -21.7494  -43.6789 H         1 UNK         0.0851 
     82 H82        19.0668  -22.8356  -44.2416 H         1 UNK         0.0851 
     83 H83        19.2268  -22.0203  -42.6970 H         1 UNK         0.0851 
     84 H84        15.8055  -24.2208  -43.0148 H         1 UNK         0.2976 
     85 H85        21.3234  -25.4464  -41.5186 H         1 UNK         0.3116 
     86 H86        23.3502  -24.6470  -41.7170 H         1 UNK         0.0646 
     87 H87        22.3647  -23.7708  -43.8081 H         1 UNK         0.0847 
     88 H88        24.0869  -24.0429  -44.0164 H         1 UNK         0.0847 
     89 H89        22.9354  -25.1783  -44.7032 H         1 UNK         0.0847 
     90 H90        23.2612  -27.7394  -43.4146 H         1 UNK         0.3040 
     91 H91        26.0505  -28.1329  -43.7619 H         1 UNK         0.1015 
     92 H92        23.7630  -30.1689  -43.5394 H         1 UNK         0.0786 
     93 H93        25.3450  -30.5041  -44.2284 H         1 UNK         0.0786 
     94 H94        24.2704  -29.3635  -45.0228 H         1 UNK         0.0786 
     95 H95        27.4642  -29.6548  -42.7852 H         1 UNK         0.3172 
     96 H96        27.6665  -29.6608  -39.9562 H         1 UNK         0.0595 
     97 H97        29.0305  -31.4453  -42.0506 H         1 UNK         0.0839 
     98 H98        29.5381  -31.2700  -40.3774 H         1 UNK         0.0839 
     99 H99        29.6340  -29.8943  -41.4635 H         1 UNK         0.0839 
    100 H100       26.9443  -31.0161  -38.4423 H         1 UNK         0.2998 
    101 H101       25.6629  -32.4525  -37.3521 H         1 UNK         0.0822 
    102 H102       25.8030  -34.8493  -37.9092 H         1 UNK         0.0787 
    103 H103       26.3505  -34.4890  -39.5390 H         1 UNK         0.0787 
    104 H104       27.3760  -34.1119  -38.1549 H         1 UNK         0.0787 
    105 H105       24.4255  -30.7850  -39.4999 H         1 UNK         0.3055 
    106 H106       22.5345  -30.3572  -40.5561 H         1 UNK         0.1106 
    107 H107       21.2224  -32.2578  -38.5390 H         1 UNK         0.0828 
    108 H108       21.5690  -30.5519  -38.2564 H         1 UNK         0.0828 
    109 H109       20.4050  -31.0213  -39.4818 H         1 UNK         0.0828 
    110 H110       24.1390  -32.2232  -41.7756 H         1 UNK         0.2931 
    111 H111       24.3866  -33.7160  -43.2688 H         1 UNK         0.0412 
    112 H112       22.7437  -36.4132  -41.1444 H         1 UNK         0.3472 
    113 H113       23.1316  -34.7777  -40.6658 H         1 UNK         0.3472 
    114 H114       22.9864  -33.8998  -45.2290 H         1 UNK         0.0970 
    115 H115       23.1923  -32.2542  -44.7584 H         1 UNK         0.0970 
    116 H116       20.9887  -30.8470  -45.6468 H         1 UNK         0.0612 
    117 H117       21.5004  -30.7018  -43.9824 H         1 UNK         0.0612 
@<TRIPOS>BOND
     1    1    2 1    
     2    1   62 1    
     3    1   63 1    
     4    1   64 1    
     5    2    3 2    
     6    2    4 am   BACKBONE|DICT|INTERRES
     7    4    5 1    
     8    4   65 1    
     9    5    6 1    
    10    5   25 1    
    11    5   66 1    
    12    6    7 1    
    13    6   67 1    
    14    6   68 1    
    15    7    8 1    
    16    8    9 1    
    17    8   69 1    
    18    8   70 1    
    19    9   10 ar   
    20    9   14 ar   
    21   10   11 ar   
    22   10   71 1    
    23   11   12 ar   
    24   11   61 1    
    25   12   13 ar   
    26   12   72 1    
    27   13   14 ar   
    28   13   15 1    
    29   14   73 1    
    30   15   16 1    
    31   15   74 1    
    32   15   75 1    
    33   16   17 1    
    34   17   18 1    
    35   17   76 1    
    36   17   77 1    
    37   18   19 1    
    38   18   27 1    
    39   18   78 1    
    40   19   20 am   BACKBONE|DICT|INTERRES
    41   19   79 1    
    42   20   21 2    
    43   20   22 1    
    44   22   23 1    
    45   22   24 1    
    46   22   80 1    
    47   23   81 1    
    48   23   82 1    
    49   23   83 1    
    50   24   25 am   BACKBONE|DICT|INTERRES
    51   24   84 1    
    52   25   26 2    
    53   27   28 2    
    54   27   29 am   BACKBONE|DICT|INTERRES
    55   29   30 1    
    56   29   85 1    
    57   30   31 1    
    58   30   32 1    
    59   30   86 1    
    60   31   87 1    
    61   31   88 1    
    62   31   89 1    
    63   32   33 2    
    64   32   34 am   BACKBONE|DICT|INTERRES
    65   34   35 1    
    66   34   90 1    
    67   35   36 1    
    68   35   37 1    
    69   35   91 1    
    70   36   92 1    
    71   36   93 1    
    72   36   94 1    
    73   37   38 2    
    74   37   39 am   BACKBONE|DICT|INTERRES
    75   39   40 1    
    76   39   95 1    
    77   40   41 1    
    78   40   42 1    
    79   40   96 1    
    80   41   97 1    
    81   41   98 1    
    82   41   99 1    
    83   42   43 2    
    84   42   44 am   BACKBONE|DICT|INTERRES
    85   44   45 1    
    86   44  100 1    
    87   45   46 1    
    88   45   47 1    
    89   45  101 1    
    90   46  102 1    
    91   46  103 1    
    92   46  104 1    
    93   47   48 2    
    94   47   49 am   BACKBONE|DICT|INTERRES
    95   49   50 1    
    96   49  105 1    
    97   50   51 1    
    98   50   52 1    
    99   50  106 1    
   100   51  107 1    
   101   51  108 1    
   102   51  109 1    
   103   52   53 2    
   104   52   54 am   BACKBONE|DICT|INTERRES
   105   54   55 1    
   106   54  110 1    
   107   55   56 1    
   108   55   59 1    
   109   55  111 1    
   110   56   57 am   BACKBONE|DICT|INTERRES
   111   56   58 2    
   112   57  112 1    
   113   57  113 1    
   114   59   60 1    
   115   59  114 1    
   116   59  115 1    
   117   60   61 1    
   118   61  116 1    
   119   61  117 1    
@<TRIPOS>SUBSTRUCTURE
     1 UNK         1 GROUP             0       ****    0 ROOT    
