@<TRIPOS>MOLECULE
3R8
117   119    1
SMALL
USER_CHARGES


@<TRIPOS>ATOM
      1 CA         21.9892  -26.2416  -49.3713 C.3       0 UNK        -0.2013 
      2 C          21.4884  -26.0375  -47.9494 C.2       0 UNK         0.4866 
      3 O          22.0423  -25.2162  -47.2195 O.2       0 UNK        -0.5176 
      4 N          20.4522  -26.7856  -47.5522 N.am      1 UNK        -0.4884 
      5 CA         19.8069  -26.7201  -46.2352 C.3       1 UNK         0.0853 
      6 C6         18.8433  -27.9142  -46.0229 C.3       10 UNK        -0.0849 
      7 S7         19.6685  -29.5293  -46.2376 S.3       10 UNK        -0.2776 
      8 C8         18.2684  -30.6792  -46.0704 C.3       10 UNK         0.0316 
      9 C9         17.6977  -30.6413  -44.6630 C.ar      10 UNK        -0.0863 
     10 C10        18.3484  -31.3097  -43.6250 C.ar      10 UNK        -0.1009 
     11 C11        17.8701  -31.2315  -42.3141 C.ar      10 UNK        -0.0712 
     12 C12        16.7129  -30.4887  -42.0497 C.ar      10 UNK        -0.0894 
     13 C13        16.0527  -29.8164  -43.0859 C.ar      10 UNK        -0.0745 
     14 C14        16.5420  -29.9085  -44.3907 C.ar      10 UNK        -0.0972 
     15 C15        14.8325  -28.9520  -42.8102 C.3       10 UNK         0.0209 
     16 S16        15.2470  -27.1805  -42.9322 S.3       10 UNK        -0.2568 
     17 C17        16.2106  -26.9411  -41.4060 C.3       10 UNK        -0.0983 
     18 CA         17.7396  -27.0734  -41.6182 C.3       3 UNK         0.0876 
     19 N          18.2799  -26.0343  -42.4987 N.am      3 UNK        -0.4424 
     20 C          19.5433  -26.0026  -42.9415 C.2       2 UNK         0.4918 
     21 O          20.3603  -26.9041  -42.7525 O.2       2 UNK        -0.4875 
     22 CA         19.9373  -24.7573  -43.7511 C.3       2 UNK         0.0481 
     23 CB         21.4561  -24.6163  -43.9928 C.3       2 UNK        -0.1831 
     24 N          19.1612  -24.6054  -44.9889 N.am      2 UNK        -0.4498 
     25 C          19.0450  -25.3801  -46.0818 C.2       1 UNK         0.5027 
     26 O          18.2994  -25.0393  -47.0016 O.2       1 UNK        -0.4969 
     27 C          18.4456  -27.0571  -40.2488 C.2       3 UNK         0.5005 
     28 O          18.6517  -25.9789  -39.6857 O.2       3 UNK        -0.5279 
     29 N          18.7714  -28.2531  -39.7365 N.am      4 UNK        -0.4463 
     30 CA         19.4098  -28.5163  -38.4386 C.3       4 UNK         0.0283 
     31 CB         18.4873  -28.0967  -37.2742 C.3       4 UNK        -0.1875 
     32 C          20.8333  -27.9355  -38.3036 C.2       4 UNK         0.4949 
     33 O          21.3136  -27.7563  -37.1840 O.2       4 UNK        -0.5039 
     34 N          21.5021  -27.6811  -39.4378 N.am      5 UNK        -0.4663 
     35 CA         22.8697  -27.1536  -39.5014 C.3       5 UNK         0.0242 
     36 CB         23.0721  -26.4657  -40.8611 C.3       5 UNK        -0.1982 
     37 C          23.9548  -28.2202  -39.2652 C.2       5 UNK         0.5017 
     38 O          25.1348  -27.8701  -39.2217 O.2       5 UNK        -0.5012 
     39 N          23.5507  -29.4953  -39.1551 N.am      6 UNK        -0.4439 
     40 CA         24.3535  -30.7107  -38.9604 C.3       6 UNK         0.0297 
     41 CB         25.2013  -30.6486  -37.6749 C.3       6 UNK        -0.2006 
     42 C          25.2062  -31.0853  -40.1828 C.2       6 UNK         0.4892 
     43 O          25.0960  -32.2112  -40.6656 O.2       6 UNK        -0.5089 
     44 N          26.0000  -30.1347  -40.6911 N.am      7 UNK        -0.4243 
     45 CA         26.8235  -30.2779  -41.8947 C.3       7 UNK         0.0196 
     46 CB         27.7432  -29.0540  -42.0315 C.3       7 UNK        -0.2007 
     47 C          25.9888  -30.4752  -43.1717 C.2       7 UNK         0.5020 
     48 O          26.3963  -31.2359  -44.0493 O.2       7 UNK        -0.5147 
     49 N          24.8311  -29.8031  -43.2430 N.am      8 UNK        -0.4734 
     50 CA         23.8580  -29.9585  -44.3276 C.3       8 UNK         0.0238 
     51 CB         22.9575  -28.7136  -44.3867 C.3       8 UNK        -0.1912 
     52 C          23.0105  -31.2344  -44.1725 C.2       8 UNK         0.5038 
     53 O          22.6390  -31.8365  -45.1802 O.2       8 UNK        -0.5046 
     54 N          22.7227  -31.6161  -42.9208 N.am      9 UNK        -0.4200 
     55 CA         21.9407  -32.8089  -42.5654 C.3       9 UNK         0.0839 
     56 C          22.7211  -34.1378  -42.7512 C.2       9 UNK         0.5513 
     57 N          24.0161  -34.1797  -42.4667 N.am      9 UNK        -0.7519 
     58 O          22.1432  -35.1407  -43.1615 O.2       9 UNK        -0.4960 
     59 C59        21.3442  -32.7098  -41.1372 C.3       10 UNK        -0.0876 
     60 S60        20.2670  -31.2491  -40.9087 S.3       10 UNK        -0.2414 
     61 C61        18.6073  -31.9556  -41.1957 C.3       10 UNK         0.0169 
     62 H62        21.4191  -27.0057  -49.8996 H         1 UNK         0.0903 
     63 H63        21.9115  -25.3112  -49.9332 H         1 UNK         0.0903 
     64 H64        23.0352  -26.5468  -49.3601 H         1 UNK         0.0903 
     65 H65        20.0383  -27.4424  -48.1981 H         1 UNK         0.3096 
     66 H66        20.5937  -26.7997  -45.4906 H         1 UNK         0.1121 
     67 H67        18.4209  -27.8777  -45.0173 H         1 UNK         0.0849 
     68 H68        18.0001  -27.8616  -46.7147 H         1 UNK         0.0849 
     69 H69        17.5033  -30.4376  -46.8099 H         1 UNK         0.0865 
     70 H70        18.6088  -31.6899  -46.3007 H         1 UNK         0.0865 
     71 H71        19.2458  -31.8694  -43.8394 H         1 UNK         0.1346 
     72 H72        16.3345  -30.4202  -41.0388 H         1 UNK         0.1412 
     73 H73        16.0406  -29.3762  -45.1878 H         1 UNK         0.1426 
     74 H74        14.4056  -29.1706  -41.8302 H         1 UNK         0.0716 
     75 H75        14.0552  -29.1835  -43.5399 H         1 UNK         0.0716 
     76 H76        15.8581  -27.6577  -40.6612 H         1 UNK         0.0695 
     77 H77        15.9668  -25.9550  -41.0057 H         1 UNK         0.0695 
     78 H78        17.9524  -28.0292  -42.0993 H         1 UNK         0.0983 
     79 H79        17.6662  -25.2591  -42.7008 H         1 UNK         0.3095 
     80 H80        19.6509  -23.9034  -43.1351 H         1 UNK         0.0454 
     81 H81        21.9751  -24.4489  -43.0493 H         1 UNK         0.0851 
     82 H82        21.6785  -23.7627  -44.6330 H         1 UNK         0.0851 
     83 H83        21.9139  -25.4944  -44.4434 H         1 UNK         0.0851 
     84 H84        18.6039  -23.7629  -45.0033 H         1 UNK         0.2976 
     85 H85        18.5926  -29.0763  -40.2963 H         1 UNK         0.3116 
     86 H86        19.5283  -29.5990  -38.3797 H         1 UNK         0.0646 
     87 H87        18.3776  -27.0136  -37.2131 H         1 UNK         0.0847 
     88 H88        18.8856  -28.4349  -36.3168 H         1 UNK         0.0847 
     89 H89        17.4927  -28.5299  -37.3786 H         1 UNK         0.0847 
     90 H90        21.0315  -27.8329  -40.3203 H         1 UNK         0.3040 
     91 H91        22.9908  -26.4004  -38.7195 H         1 UNK         0.1015 
     92 H92        22.9597  -27.1641  -41.6901 H         1 UNK         0.0786 
     93 H93        24.0660  -26.0227  -40.9376 H         1 UNK         0.0786 
     94 H94        22.3502  -25.6616  -41.0011 H         1 UNK         0.0786 
     95 H95        22.5551  -29.6490  -39.2337 H         1 UNK         0.3172 
     96 H96        23.6305  -31.5163  -38.8240 H         1 UNK         0.0595 
     97 H97        25.9759  -29.8830  -37.7253 H         1 UNK         0.0839 
     98 H98        25.7025  -31.6008  -37.4960 H         1 UNK         0.0839 
     99 H99        24.5820  -30.4402  -36.8025 H         1 UNK         0.0839 
    100 H100       25.9947  -29.2291  -40.2282 H         1 UNK         0.2998 
    101 H101       27.4475  -31.1654  -41.7684 H         1 UNK         0.0822 
    102 H102       28.4003  -28.9540  -41.1674 H         1 UNK         0.0787 
    103 H103       28.3796  -29.1405  -42.9134 H         1 UNK         0.0787 
    104 H104       27.1737  -28.1287  -42.1284 H         1 UNK         0.0787 
    105 H105       24.5909  -29.1781  -42.4882 H         1 UNK         0.3055 
    106 H106       24.3989  -30.0315  -45.2741 H         1 UNK         0.1106 
    107 H107       22.3249  -28.7409  -45.2735 H         1 UNK         0.0828 
    108 H108       22.2971  -28.6471  -43.5214 H         1 UNK         0.0828 
    109 H109       23.5413  -27.7946  -44.4400 H         1 UNK         0.0828 
    110 H110       23.0968  -31.0825  -42.1536 H         1 UNK         0.2931 
    111 H111       21.1014  -32.8608  -43.2585 H         1 UNK         0.0412 
    112 H112       24.5225  -35.0412  -42.5937 H         1 UNK         0.3472 
    113 H113       24.4729  -33.3857  -42.0269 H         1 UNK         0.3472 
    114 H114       20.7858  -33.6138  -40.8877 H         1 UNK         0.0970 
    115 H115       22.1476  -32.6549  -40.4013 H         1 UNK         0.0970 
    116 H116       18.6745  -33.0128  -41.4544 H         1 UNK         0.0612 
    117 H117       18.0427  -31.9060  -40.2635 H         1 UNK         0.0612 
@<TRIPOS>BOND
     1    1    2 1    
     2    1   62 1    
     3    1   63 1    
     4    1   64 1    
     5    2    3 2    
     6    2    4 am   BACKBONE|DICT|INTERRES
     7    4    5 1    
     8    4   65 1    
     9    5    6 1    
    10    5   25 1    
    11    5   66 1    
    12    6    7 1    
    13    6   67 1    
    14    6   68 1    
    15    7    8 1    
    16    8    9 1    
    17    8   69 1    
    18    8   70 1    
    19    9   10 ar   
    20    9   14 ar   
    21   10   11 ar   
    22   10   71 1    
    23   11   12 ar   
    24   11   61 1    
    25   12   13 ar   
    26   12   72 1    
    27   13   14 ar   
    28   13   15 1    
    29   14   73 1    
    30   15   16 1    
    31   15   74 1    
    32   15   75 1    
    33   16   17 1    
    34   17   18 1    
    35   17   76 1    
    36   17   77 1    
    37   18   19 1    
    38   18   27 1    
    39   18   78 1    
    40   19   20 am   BACKBONE|DICT|INTERRES
    41   19   79 1    
    42   20   21 2    
    43   20   22 1    
    44   22   23 1    
    45   22   24 1    
    46   22   80 1    
    47   23   81 1    
    48   23   82 1    
    49   23   83 1    
    50   24   25 am   BACKBONE|DICT|INTERRES
    51   24   84 1    
    52   25   26 2    
    53   27   28 2    
    54   27   29 am   BACKBONE|DICT|INTERRES
    55   29   30 1    
    56   29   85 1    
    57   30   31 1    
    58   30   32 1    
    59   30   86 1    
    60   31   87 1    
    61   31   88 1    
    62   31   89 1    
    63   32   33 2    
    64   32   34 am   BACKBONE|DICT|INTERRES
    65   34   35 1    
    66   34   90 1    
    67   35   36 1    
    68   35   37 1    
    69   35   91 1    
    70   36   92 1    
    71   36   93 1    
    72   36   94 1    
    73   37   38 2    
    74   37   39 am   BACKBONE|DICT|INTERRES
    75   39   40 1    
    76   39   95 1    
    77   40   41 1    
    78   40   42 1    
    79   40   96 1    
    80   41   97 1    
    81   41   98 1    
    82   41   99 1    
    83   42   43 2    
    84   42   44 am   BACKBONE|DICT|INTERRES
    85   44   45 1    
    86   44  100 1    
    87   45   46 1    
    88   45   47 1    
    89   45  101 1    
    90   46  102 1    
    91   46  103 1    
    92   46  104 1    
    93   47   48 2    
    94   47   49 am   BACKBONE|DICT|INTERRES
    95   49   50 1    
    96   49  105 1    
    97   50   51 1    
    98   50   52 1    
    99   50  106 1    
   100   51  107 1    
   101   51  108 1    
   102   51  109 1    
   103   52   53 2    
   104   52   54 am   BACKBONE|DICT|INTERRES
   105   54   55 1    
   106   54  110 1    
   107   55   56 1    
   108   55   59 1    
   109   55  111 1    
   110   56   57 am   BACKBONE|DICT|INTERRES
   111   56   58 2    
   112   57  112 1    
   113   57  113 1    
   114   59   60 1    
   115   59  114 1    
   116   59  115 1    
   117   60   61 1    
   118   61  116 1    
   119   61  117 1    
@<TRIPOS>SUBSTRUCTURE
     1 UNK         1 GROUP             0       ****    0 ROOT    
