@<TRIPOS>MOLECULE
3R8
117   119    1
SMALL
USER_CHARGES


@<TRIPOS>ATOM
      1 CA         13.7102  -23.2127  -46.6659 C.3       0 UNK        -0.2013 
      2 C          14.7735  -24.2582  -46.9667 C.2       0 UNK         0.4866 
      3 O          15.0721  -24.5095  -48.1344 O.2       0 UNK        -0.5176 
      4 N          15.3457  -24.8716  -45.9222 N.am      1 UNK        -0.4884 
      5 CA         16.3764  -25.9143  -46.0227 C.3       1 UNK         0.0853 
      6 C6         16.6126  -26.6255  -44.6671 C.3       10 UNK        -0.0849 
      7 S7         15.1234  -27.4072  -43.9596 S.3       10 UNK        -0.2776 
      8 C8         15.5850  -29.1790  -43.9621 C.3       10 UNK         0.0316 
      9 C9         16.7873  -29.5806  -43.0972 C.ar      10 UNK        -0.0863 
     10 C10        17.2725  -30.8883  -43.2154 C.ar      10 UNK        -0.1009 
     11 C11        18.3754  -31.3161  -42.4705 C.ar      10 UNK        -0.0712 
     12 C12        19.0139  -30.4208  -41.6103 C.ar      10 UNK        -0.0894 
     13 C13        18.5444  -29.1128  -41.4755 C.ar      10 UNK        -0.0745 
     14 C14        17.4203  -28.7055  -42.2010 C.ar      10 UNK        -0.0972 
     15 C15        19.2601  -28.1468  -40.5435 C.3       10 UNK         0.0209 
     16 S16        20.6899  -27.3710  -41.3598 S.3       10 UNK        -0.2568 
     17 C17        19.8898  -26.0169  -42.2818 C.3       10 UNK        -0.0983 
     18 CA         20.8141  -25.3499  -43.3323 C.3       3 UNK         0.0876 
     19 N          20.0219  -24.5610  -44.2738 N.am      3 UNK        -0.4424 
     20 C          20.4193  -24.1644  -45.4897 C.2       2 UNK         0.4918 
     21 O          21.5416  -24.3798  -45.9506 O.2       2 UNK        -0.4875 
     22 CA         19.3440  -23.4490  -46.3383 C.3       2 UNK         0.0481 
     23 CB         19.7501  -23.2800  -47.8176 C.3       2 UNK        -0.1831 
     24 N          18.0307  -24.1023  -46.2157 N.am      2 UNK        -0.4498 
     25 C          17.7308  -25.3756  -46.5300 C.2       1 UNK         0.5027 
     26 O          18.4887  -26.1371  -47.1321 O.2       1 UNK        -0.4969 
     27 C          21.9118  -24.4944  -42.6662 C.2       3 UNK         0.5005 
     28 O          21.7095  -23.3025  -42.4182 O.2       3 UNK        -0.5279 
     29 N          23.0302  -25.1488  -42.3422 N.am      4 UNK        -0.4463 
     30 CA         24.1324  -24.6348  -41.5355 C.3       4 UNK         0.0283 
     31 CB         25.2076  -24.0099  -42.4448 C.3       4 UNK        -0.1875 
     32 C          24.6475  -25.8123  -40.6981 C.2       4 UNK         0.4949 
     33 O          25.7742  -26.2699  -40.8940 O.2       4 UNK        -0.5039 
     34 N          23.7531  -26.3581  -39.8603 N.am      5 UNK        -0.4663 
     35 CA         23.8469  -27.6032  -39.0779 C.3       5 UNK         0.0242 
     36 CB         25.0398  -27.5881  -38.1023 C.3       5 UNK        -0.1982 
     37 C          23.8421  -28.8810  -39.9381 C.2       5 UNK         0.5017 
     38 O          23.1379  -29.8325  -39.5970 O.2       5 UNK        -0.5012 
     39 N          24.6184  -28.8779  -41.0326 N.am      6 UNK        -0.4439 
     40 CA         24.6892  -29.8841  -42.1030 C.3       6 UNK         0.0297 
     41 CB         23.3815  -29.8605  -42.9250 C.3       6 UNK        -0.2006 
     42 C          25.0382  -31.3097  -41.6275 C.2       6 UNK         0.4892 
     43 O          24.6852  -32.2748  -42.3066 O.2       6 UNK        -0.5089 
     44 N          25.6715  -31.4247  -40.4482 N.am      7 UNK        -0.4243 
     45 CA         25.9196  -32.6630  -39.6934 C.3       7 UNK         0.0196 
     46 CB         27.0069  -33.5094  -40.3888 C.3       7 UNK        -0.2007 
     47 C          24.6295  -33.4675  -39.4141 C.2       7 UNK         0.5020 
     48 O          24.6674  -34.6991  -39.3935 O.2       7 UNK        -0.5147 
     49 N          23.4970  -32.7570  -39.2700 N.am      8 UNK        -0.4734 
     50 CA         22.1249  -33.2767  -39.1783 C.3       8 UNK         0.0238 
     51 CB         21.9106  -34.0107  -37.8377 C.3       8 UNK        -0.1912 
     52 C          21.7029  -34.1295  -40.3960 C.2       8 UNK         0.5038 
     53 O          20.8292  -34.9878  -40.2611 O.2       8 UNK        -0.5046 
     54 N          22.3357  -33.8865  -41.5535 N.am      9 UNK        -0.4200 
     55 CA         22.2167  -34.6580  -42.8009 C.3       9 UNK         0.0839 
     56 C          22.7818  -36.1089  -42.7078 C.2       9 UNK         0.5513 
     57 N          23.6009  -36.4431  -41.7159 N.am      9 UNK        -0.7519 
     58 O          22.5003  -36.9429  -43.5650 O.2       9 UNK        -0.4960 
     59 C59        20.8009  -34.5930  -43.4448 C.3       10 UNK        -0.0876 
     60 S60        20.2494  -32.8806  -43.7610 S.3       10 UNK        -0.2414 
     61 C61        18.8749  -32.7469  -42.5801 C.3       10 UNK         0.0169 
     62 H62        14.0093  -22.2461  -47.0705 H         1 UNK         0.0903 
     63 H63        12.7643  -23.4970  -47.1263 H         1 UNK         0.0903 
     64 H64        13.5438  -23.0956  -45.5952 H         1 UNK         0.0903 
     65 H65        15.0342  -24.6548  -44.9853 H         1 UNK         0.3096 
     66 H66        16.0343  -26.6572  -46.7471 H         1 UNK         0.1121 
     67 H67        16.9836  -25.9136  -43.9278 H         1 UNK         0.0849 
     68 H68        17.3933  -27.3822  -44.7728 H         1 UNK         0.0849 
     69 H69        14.7185  -29.7528  -43.6306 H         1 UNK         0.0865 
     70 H70        15.7724  -29.4793  -44.9944 H         1 UNK         0.0865 
     71 H71        16.7888  -31.5800  -43.8921 H         1 UNK         0.1346 
     72 H72        19.8810  -30.7407  -41.0481 H         1 UNK         0.1412 
     73 H73        17.0583  -27.6965  -42.0709 H         1 UNK         0.1426 
     74 H74        19.6122  -28.6841  -39.6615 H         1 UNK         0.0716 
     75 H75        18.5769  -27.3781  -40.1790 H         1 UNK         0.0716 
     76 H76        19.4972  -25.2828  -41.5752 H         1 UNK         0.0695 
     77 H77        19.0253  -26.4453  -42.7875 H         1 UNK         0.0695 
     78 H78        21.2988  -26.1396  -43.9117 H         1 UNK         0.0983 
     79 H79        19.1049  -24.2850  -43.9588 H         1 UNK         0.3095 
     80 H80        19.2323  -22.4508  -45.9127 H         1 UNK         0.0454 
     81 H81        19.9471  -24.2380  -48.2994 H         1 UNK         0.0851 
     82 H82        20.6580  -22.6822  -47.9057 H         1 UNK         0.0851 
     83 H83        18.9719  -22.7722  -48.3870 H         1 UNK         0.0851 
     84 H84        17.3150  -23.5655  -45.7452 H         1 UNK         0.2976 
     85 H85        23.0820  -26.1366  -42.5536 H         1 UNK         0.3116 
     86 H86        23.7689  -23.8724  -40.8429 H         1 UNK         0.0646 
     87 H87        25.5983  -24.7308  -43.1639 H         1 UNK         0.0847 
     88 H88        26.0501  -23.6434  -41.8570 H         1 UNK         0.0847 
     89 H89        24.8088  -23.1633  -43.0038 H         1 UNK         0.0847 
     90 H90        22.8406  -25.9221  -39.8327 H         1 UNK         0.3040 
     91 H91        22.9361  -27.6396  -38.4772 H         1 UNK         0.1015 
     92 H92        25.9988  -27.5869  -38.6208 H         1 UNK         0.0786 
     93 H93        25.0235  -28.4679  -37.4576 H         1 UNK         0.0786 
     94 H94        25.0089  -26.7122  -37.4542 H         1 UNK         0.0786 
     95 H95        25.1923  -28.0471  -41.1642 H         1 UNK         0.3172 
     96 H96        25.5035  -29.5757  -42.7599 H         1 UNK         0.0595 
     97 H97        23.4536  -30.5021  -43.8043 H         1 UNK         0.0839 
     98 H98        23.1513  -28.8562  -43.2797 H         1 UNK         0.0839 
     99 H99        22.5296  -30.2095  -42.3394 H         1 UNK         0.0839 
    100 H100       25.9111  -30.5665  -39.9718 H         1 UNK         0.2998 
    101 H101       26.3046  -32.3608  -38.7183 H         1 UNK         0.0822 
    102 H102       27.2919  -34.3639  -39.7737 H         1 UNK         0.0787 
    103 H103       26.6635  -33.8996  -41.3476 H         1 UNK         0.0787 
    104 H104       27.9100  -32.9260  -40.5681 H         1 UNK         0.0787 
    105 H105       23.5592  -31.7434  -39.3367 H         1 UNK         0.3055 
    106 H106       21.4698  -32.4038  -39.1871 H         1 UNK         0.1106 
    107 H107       20.8613  -34.2728  -37.6970 H         1 UNK         0.0828 
    108 H108       22.4854  -34.9359  -37.7866 H         1 UNK         0.0828 
    109 H109       22.2020  -33.3870  -36.9927 H         1 UNK         0.0828 
    110 H110       23.0695  -33.1859  -41.5697 H         1 UNK         0.2931 
    111 H111       22.8942  -34.1581  -43.4939 H         1 UNK         0.0412 
    112 H112       23.9661  -37.3814  -41.6758 H         1 UNK         0.3472 
    113 H113       23.8580  -35.7725  -41.0005 H         1 UNK         0.3472 
    114 H114       20.0717  -35.1191  -42.8269 H         1 UNK         0.0970 
    115 H115       20.8001  -35.1095  -44.4062 H         1 UNK         0.0970 
    116 H116       19.1977  -33.0938  -41.5982 H         1 UNK         0.0612 
    117 H117       18.0672  -33.4110  -42.8914 H         1 UNK         0.0612 
@<TRIPOS>BOND
     1    1    2 1    
     2    1   62 1    
     3    1   63 1    
     4    1   64 1    
     5    2    3 2    
     6    2    4 am   BACKBONE|DICT|INTERRES
     7    4    5 1    
     8    4   65 1    
     9    5    6 1    
    10    5   25 1    
    11    5   66 1    
    12    6    7 1    
    13    6   67 1    
    14    6   68 1    
    15    7    8 1    
    16    8    9 1    
    17    8   69 1    
    18    8   70 1    
    19    9   10 ar   
    20    9   14 ar   
    21   10   11 ar   
    22   10   71 1    
    23   11   12 ar   
    24   11   61 1    
    25   12   13 ar   
    26   12   72 1    
    27   13   14 ar   
    28   13   15 1    
    29   14   73 1    
    30   15   16 1    
    31   15   74 1    
    32   15   75 1    
    33   16   17 1    
    34   17   18 1    
    35   17   76 1    
    36   17   77 1    
    37   18   19 1    
    38   18   27 1    
    39   18   78 1    
    40   19   20 am   BACKBONE|DICT|INTERRES
    41   19   79 1    
    42   20   21 2    
    43   20   22 1    
    44   22   23 1    
    45   22   24 1    
    46   22   80 1    
    47   23   81 1    
    48   23   82 1    
    49   23   83 1    
    50   24   25 am   BACKBONE|DICT|INTERRES
    51   24   84 1    
    52   25   26 2    
    53   27   28 2    
    54   27   29 am   BACKBONE|DICT|INTERRES
    55   29   30 1    
    56   29   85 1    
    57   30   31 1    
    58   30   32 1    
    59   30   86 1    
    60   31   87 1    
    61   31   88 1    
    62   31   89 1    
    63   32   33 2    
    64   32   34 am   BACKBONE|DICT|INTERRES
    65   34   35 1    
    66   34   90 1    
    67   35   36 1    
    68   35   37 1    
    69   35   91 1    
    70   36   92 1    
    71   36   93 1    
    72   36   94 1    
    73   37   38 2    
    74   37   39 am   BACKBONE|DICT|INTERRES
    75   39   40 1    
    76   39   95 1    
    77   40   41 1    
    78   40   42 1    
    79   40   96 1    
    80   41   97 1    
    81   41   98 1    
    82   41   99 1    
    83   42   43 2    
    84   42   44 am   BACKBONE|DICT|INTERRES
    85   44   45 1    
    86   44  100 1    
    87   45   46 1    
    88   45   47 1    
    89   45  101 1    
    90   46  102 1    
    91   46  103 1    
    92   46  104 1    
    93   47   48 2    
    94   47   49 am   BACKBONE|DICT|INTERRES
    95   49   50 1    
    96   49  105 1    
    97   50   51 1    
    98   50   52 1    
    99   50  106 1    
   100   51  107 1    
   101   51  108 1    
   102   51  109 1    
   103   52   53 2    
   104   52   54 am   BACKBONE|DICT|INTERRES
   105   54   55 1    
   106   54  110 1    
   107   55   56 1    
   108   55   59 1    
   109   55  111 1    
   110   56   57 am   BACKBONE|DICT|INTERRES
   111   56   58 2    
   112   57  112 1    
   113   57  113 1    
   114   59   60 1    
   115   59  114 1    
   116   59  115 1    
   117   60   61 1    
   118   61  116 1    
   119   61  117 1    
@<TRIPOS>SUBSTRUCTURE
     1 UNK         1 GROUP             0       ****    0 ROOT    
