@<TRIPOS>MOLECULE
3R8
117   119    1
SMALL
USER_CHARGES


@<TRIPOS>ATOM
      1 CA         20.6004  -24.8787  -49.2863 C.3       0 UNK        -0.2013 
      2 C          20.9641  -25.3359  -47.8817 C.2       0 UNK         0.4866 
      3 O          21.8106  -24.7169  -47.2370 O.2       0 UNK        -0.5176 
      4 N          20.3346  -26.4183  -47.4066 N.am      1 UNK        -0.4884 
      5 CA         20.5170  -26.9819  -46.0634 C.3       1 UNK         0.0853 
      6 C6         19.8955  -28.4009  -45.9436 C.3       10 UNK        -0.0849 
      7 S7         18.1325  -28.4679  -46.4377 S.3       10 UNK        -0.2776 
      8 C8         17.6969  -30.1975  -46.0914 C.3       10 UNK         0.0316 
      9 C9         17.6201  -30.4846  -44.5992 C.ar      10 UNK        -0.0863 
     10 C10        18.5984  -31.2696  -43.9883 C.ar      10 UNK        -0.1009 
     11 C11        18.5091  -31.6071  -42.6322 C.ar      10 UNK        -0.0712 
     12 C12        17.4463  -31.0967  -41.8774 C.ar      10 UNK        -0.0894 
     13 C13        16.4693  -30.2878  -42.4703 C.ar      10 UNK        -0.0745 
     14 C14        16.5538  -30.0013  -43.8371 C.ar      10 UNK        -0.0972 
     15 C15        15.3159  -29.7349  -41.6401 C.3       10 UNK         0.0209 
     16 S16        15.2146  -27.9134  -41.7021 S.3       10 UNK        -0.2568 
     17 C17        16.6533  -27.4048  -40.6992 C.3       10 UNK        -0.0983 
     18 CA         17.9735  -27.3407  -41.5095 C.3       3 UNK         0.0876 
     19 N          17.8977  -26.5444  -42.7456 N.am      3 UNK        -0.4424 
     20 C          17.7118  -25.2254  -42.8956 C.2       2 UNK         0.4918 
     21 O          17.4227  -24.4726  -41.9650 O.2       2 UNK        -0.4875 
     22 CA         17.9876  -24.6305  -44.2956 C.3       2 UNK         0.0481 
     23 CB         18.6484  -23.2396  -44.2026 C.3       2 UNK        -0.1831 
     24 N          18.7781  -25.4973  -45.1839 N.am      2 UNK        -0.4498 
     25 C          19.9866  -26.0439  -44.9591 C.2       1 UNK         0.5027 
     26 O          20.6450  -25.8741  -43.9314 O.2       1 UNK        -0.4969 
     27 C          19.1792  -26.9880  -40.6046 C.2       3 UNK         0.5005 
     28 O          19.7206  -27.8829  -39.9534 O.2       3 UNK        -0.5279 
     29 N          19.6187  -25.7211  -40.6177 N.am      4 UNK        -0.4463 
     30 CA         20.7804  -25.1561  -39.9240 C.3       4 UNK         0.0283 
     31 CB         20.8682  -23.6566  -40.2502 C.3       4 UNK        -0.1875 
     32 C          22.1217  -25.8470  -40.2322 C.2       4 UNK         0.4949 
     33 O          23.0416  -25.7438  -39.4206 O.2       4 UNK        -0.5039 
     34 N          22.2056  -26.5646  -41.3637 N.am      5 UNK        -0.4663 
     35 CA         23.2990  -27.4815  -41.7034 C.3       5 UNK         0.0242 
     36 CB         23.0535  -28.0667  -43.1033 C.3       5 UNK        -0.1982 
     37 C          23.5047  -28.6141  -40.6776 C.2       5 UNK         0.5017 
     38 O          24.6287  -29.1018  -40.5567 O.2       5 UNK        -0.5012 
     39 N          22.4384  -28.9947  -39.9531 N.am      6 UNK        -0.4439 
     40 CA         22.4178  -29.9168  -38.8132 C.3       6 UNK         0.0297 
     41 CB         22.9934  -29.2129  -37.5638 C.3       6 UNK        -0.2006 
     42 C          23.0815  -31.2698  -39.1293 C.2       6 UNK         0.4892 
     43 O          22.5037  -32.0562  -39.8781 O.2       6 UNK        -0.5089 
     44 N          24.2788  -31.5068  -38.5755 N.am      7 UNK        -0.4243 
     45 CA         25.0835  -32.7122  -38.7820 C.3       7 UNK         0.0196 
     46 CB         26.2530  -32.7142  -37.7843 C.3       7 UNK        -0.2007 
     47 C          25.6047  -32.8809  -40.2207 C.2       7 UNK         0.5020 
     48 O          25.8247  -34.0178  -40.6394 O.2       7 UNK        -0.5147 
     49 N          25.7919  -31.7735  -40.9562 N.am      8 UNK        -0.4734 
     50 CA         26.1650  -31.8017  -42.3751 C.3       8 UNK         0.0238 
     51 CB         26.7671  -30.4504  -42.7933 C.3       8 UNK        -0.1912 
     52 C          24.9698  -32.1738  -43.2675 C.2       8 UNK         0.5038 
     53 O          25.1536  -32.9043  -44.2417 O.2       8 UNK        -0.5046 
     54 N          23.7745  -31.7007  -42.8841 N.am      9 UNK        -0.4200 
     55 CA         22.4723  -32.0242  -43.4828 C.3       9 UNK         0.0839 
     56 C          22.3886  -31.7028  -45.0072 C.2       9 UNK         0.5513 
     57 N          21.6847  -32.4968  -45.8027 N.am      9 UNK        -0.7519 
     58 O          22.9142  -30.6911  -45.4654 O.2       9 UNK        -0.4960 
     59 C59        22.0265  -33.4578  -43.0568 C.3       10 UNK        -0.0876 
     60 S60        20.2302  -33.7896  -43.0900 S.3       10 UNK        -0.2414 
     61 C61        19.5361  -32.5236  -41.9636 C.3       10 UNK         0.0169 
     62 H62        20.2083  -23.8623  -49.2599 H         1 UNK         0.0903 
     63 H63        21.4840  -24.8867  -49.9240 H         1 UNK         0.0903 
     64 H64        19.8473  -25.5208  -49.7428 H         1 UNK         0.0903 
     65 H65        19.6503  -26.8915  -47.9811 H         1 UNK         0.3096 
     66 H66        21.5923  -27.0786  -45.8967 H         1 UNK         0.1121 
     67 H67        20.4517  -29.0942  -46.5771 H         1 UNK         0.0849 
     68 H68        20.0039  -28.7845  -44.9269 H         1 UNK         0.0849 
     69 H69        18.4143  -30.8569  -46.5830 H         1 UNK         0.0865 
     70 H70        16.7286  -30.4132  -46.5453 H         1 UNK         0.0865 
     71 H71        19.4152  -31.6410  -44.5874 H         1 UNK         0.1346 
     72 H72        17.3761  -31.3365  -40.8250 H         1 UNK         0.1412 
     73 H73        15.7937  -29.3908  -44.3058 H         1 UNK         0.1426 
     74 H74        15.3882  -30.0557  -40.5998 H         1 UNK         0.0716 
     75 H75        14.3824  -30.1487  -42.0238 H         1 UNK         0.0716 
     76 H76        16.7525  -28.0943  -39.8586 H         1 UNK         0.0695 
     77 H77        16.4286  -26.4292  -40.2649 H         1 UNK         0.0695 
     78 H78        18.1926  -28.3491  -41.8569 H         1 UNK         0.0983 
     79 H79        18.1214  -27.0588  -43.5847 H         1 UNK         0.3095 
     80 H80        17.0140  -24.5093  -44.7720 H         1 UNK         0.0454 
     81 H81        18.8228  -22.8166  -45.1917 H         1 UNK         0.0851 
     82 H82        19.6068  -23.2828  -43.6841 H         1 UNK         0.0851 
     83 H83        18.0157  -22.5361  -43.6601 H         1 UNK         0.0851 
     84 H84        18.3282  -25.7461  -46.0547 H         1 UNK         0.2976 
     85 H85        19.0574  -25.0654  -41.1522 H         1 UNK         0.3116 
     86 H86        20.6002  -25.2672  -38.8531 H         1 UNK         0.0646 
     87 H87        21.7022  -23.1892  -39.7247 H         1 UNK         0.0847 
     88 H88        19.9624  -23.1293  -39.9499 H         1 UNK         0.0847 
     89 H89        21.0183  -23.4863  -41.3173 H         1 UNK         0.0847 
     90 H90        21.4375  -26.5078  -42.0230 H         1 UNK         0.3040 
     91 H91        24.2228  -26.8997  -41.7278 H         1 UNK         0.1015 
     92 H92        23.0362  -27.2816  -43.8587 H         1 UNK         0.0786 
     93 H93        22.1080  -28.6077  -43.1575 H         1 UNK         0.0786 
     94 H94        23.8444  -28.7617  -43.3871 H         1 UNK         0.0786 
     95 H95        21.5483  -28.5386  -40.1403 H         1 UNK         0.3172 
     96 H96        21.3670  -30.1325  -38.6135 H         1 UNK         0.0595 
     97 H97        24.0219  -28.8810  -37.7106 H         1 UNK         0.0839 
     98 H98        22.9715  -29.8688  -36.6922 H         1 UNK         0.0839 
     99 H99        22.4033  -28.3313  -37.3121 H         1 UNK         0.0839 
    100 H100       24.6845  -30.7844  -37.9986 H         1 UNK         0.2998 
    101 H101       24.4481  -33.5739  -38.5659 H         1 UNK         0.0822 
    102 H102       26.9144  -31.8602  -37.9360 H         1 UNK         0.0787 
    103 H103       25.8971  -32.6864  -36.7541 H         1 UNK         0.0787 
    104 H104       26.8564  -33.6167  -37.8922 H         1 UNK         0.0787 
    105 H105       25.5569  -30.8673  -40.5602 H         1 UNK         0.3055 
    106 H106       26.9322  -32.5668  -42.5170 H         1 UNK         0.1106 
    107 H107       27.1027  -30.4811  -43.8307 H         1 UNK         0.0828 
    108 H108       26.0472  -29.6368  -42.7115 H         1 UNK         0.0828 
    109 H109       27.6318  -30.1951  -42.1808 H         1 UNK         0.0828 
    110 H110       23.7431  -31.1283  -42.0537 H         1 UNK         0.2931 
    111 H111       21.7955  -31.3041  -43.0272 H         1 UNK         0.0412 
    112 H112       21.2215  -33.3122  -45.4307 H         1 UNK         0.3472 
    113 H113       21.6228  -32.2824  -46.7854 H         1 UNK         0.3472 
    114 H114       22.5354  -34.2085  -43.6640 H         1 UNK         0.0970 
    115 H115       22.3504  -33.6546  -42.0333 H         1 UNK         0.0970 
    116 H116       19.0641  -33.0550  -41.1360 H         1 UNK         0.0612 
    117 H117       20.3219  -31.9182  -41.5137 H         1 UNK         0.0612 
@<TRIPOS>BOND
     1    1    2 1    
     2    1   62 1    
     3    1   63 1    
     4    1   64 1    
     5    2    3 2    
     6    2    4 am   BACKBONE|DICT|INTERRES
     7    4    5 1    
     8    4   65 1    
     9    5    6 1    
    10    5   25 1    
    11    5   66 1    
    12    6    7 1    
    13    6   67 1    
    14    6   68 1    
    15    7    8 1    
    16    8    9 1    
    17    8   69 1    
    18    8   70 1    
    19    9   10 ar   
    20    9   14 ar   
    21   10   11 ar   
    22   10   71 1    
    23   11   12 ar   
    24   11   61 1    
    25   12   13 ar   
    26   12   72 1    
    27   13   14 ar   
    28   13   15 1    
    29   14   73 1    
    30   15   16 1    
    31   15   74 1    
    32   15   75 1    
    33   16   17 1    
    34   17   18 1    
    35   17   76 1    
    36   17   77 1    
    37   18   19 1    
    38   18   27 1    
    39   18   78 1    
    40   19   20 am   BACKBONE|DICT|INTERRES
    41   19   79 1    
    42   20   21 2    
    43   20   22 1    
    44   22   23 1    
    45   22   24 1    
    46   22   80 1    
    47   23   81 1    
    48   23   82 1    
    49   23   83 1    
    50   24   25 am   BACKBONE|DICT|INTERRES
    51   24   84 1    
    52   25   26 2    
    53   27   28 2    
    54   27   29 am   BACKBONE|DICT|INTERRES
    55   29   30 1    
    56   29   85 1    
    57   30   31 1    
    58   30   32 1    
    59   30   86 1    
    60   31   87 1    
    61   31   88 1    
    62   31   89 1    
    63   32   33 2    
    64   32   34 am   BACKBONE|DICT|INTERRES
    65   34   35 1    
    66   34   90 1    
    67   35   36 1    
    68   35   37 1    
    69   35   91 1    
    70   36   92 1    
    71   36   93 1    
    72   36   94 1    
    73   37   38 2    
    74   37   39 am   BACKBONE|DICT|INTERRES
    75   39   40 1    
    76   39   95 1    
    77   40   41 1    
    78   40   42 1    
    79   40   96 1    
    80   41   97 1    
    81   41   98 1    
    82   41   99 1    
    83   42   43 2    
    84   42   44 am   BACKBONE|DICT|INTERRES
    85   44   45 1    
    86   44  100 1    
    87   45   46 1    
    88   45   47 1    
    89   45  101 1    
    90   46  102 1    
    91   46  103 1    
    92   46  104 1    
    93   47   48 2    
    94   47   49 am   BACKBONE|DICT|INTERRES
    95   49   50 1    
    96   49  105 1    
    97   50   51 1    
    98   50   52 1    
    99   50  106 1    
   100   51  107 1    
   101   51  108 1    
   102   51  109 1    
   103   52   53 2    
   104   52   54 am   BACKBONE|DICT|INTERRES
   105   54   55 1    
   106   54  110 1    
   107   55   56 1    
   108   55   59 1    
   109   55  111 1    
   110   56   57 am   BACKBONE|DICT|INTERRES
   111   56   58 2    
   112   57  112 1    
   113   57  113 1    
   114   59   60 1    
   115   59  114 1    
   116   59  115 1    
   117   60   61 1    
   118   61  116 1    
   119   61  117 1    
@<TRIPOS>SUBSTRUCTURE
     1 UNK         1 GROUP             0       ****    0 ROOT    
