@<TRIPOS>MOLECULE
3R8
117   119    1
SMALL
USER_CHARGES


@<TRIPOS>ATOM
      1 CA         14.0599  -23.9577  -43.7673 C.3       0 UNK        -0.2013 
      2 C          15.3039  -24.8093  -43.9753 C.2       0 UNK         0.4866 
      3 O          15.8057  -25.3811  -43.0087 O.2       0 UNK        -0.5176 
      4 N          15.7818  -24.8812  -45.2277 N.am      1 UNK        -0.4884 
      5 CA         16.9553  -25.6138  -45.7290 C.3       1 UNK         0.0853 
      6 C6         16.6624  -27.0798  -46.1857 C.3       10 UNK        -0.0849 
      7 S7         15.6124  -28.1758  -45.1506 S.3       10 UNK        -0.2776 
      8 C8         16.6604  -28.7533  -43.7706 C.3       10 UNK         0.0316 
      9 C9         17.7296  -29.7760  -44.1604 C.ar      10 UNK        -0.0863 
     10 C10        17.6528  -31.0916  -43.6934 C.ar      10 UNK        -0.1009 
     11 C11        18.6621  -32.0119  -43.9951 C.ar      10 UNK        -0.0712 
     12 C12        19.7207  -31.6305  -44.8243 C.ar      10 UNK        -0.0894 
     13 C13        19.8184  -30.3220  -45.3024 C.ar      10 UNK        -0.0745 
     14 C14        18.8373  -29.3988  -44.9237 C.ar      10 UNK        -0.0972 
     15 C15        21.0047  -29.9525  -46.1988 C.3       10 UNK         0.0209 
     16 S16        20.9164  -28.2974  -46.9809 S.3       10 UNK        -0.2568 
     17 C17        22.4901  -27.5388  -46.4466 C.3       10 UNK        -0.0983 
     18 CA         22.4138  -26.7600  -45.1076 C.3       3 UNK         0.0876 
     19 N          21.3871  -25.7117  -45.1284 N.am      3 UNK        -0.4424 
     20 C          21.2853  -24.7110  -44.2426 C.2       2 UNK         0.4918 
     21 O          22.0960  -24.5305  -43.3332 O.2       2 UNK        -0.4875 
     22 CA         20.0731  -23.7607  -44.3590 C.3       2 UNK         0.0481 
     23 CB         20.5157  -22.4138  -44.9535 C.3       2 UNK        -0.1831 
     24 N          18.9101  -24.2561  -45.1143 N.am      2 UNK        -0.4498 
     25 C          18.2415  -25.3984  -44.8878 C.2       1 UNK         0.5027 
     26 O          18.6155  -26.2302  -44.0629 O.2       1 UNK        -0.4969 
     27 C          22.3255  -27.7171  -43.8959 C.2       3 UNK         0.5005 
     28 O          23.2861  -28.4543  -43.6633 O.2       3 UNK        -0.5279 
     29 N          21.2166  -27.6980  -43.1352 N.am      4 UNK        -0.4463 
     30 CA         20.9792  -28.5432  -41.9554 C.3       4 UNK         0.0283 
     31 CB         19.6435  -28.1671  -41.3006 C.3       4 UNK        -0.1875 
     32 C          22.0901  -28.4956  -40.8951 C.2       4 UNK         0.4949 
     33 O          22.3633  -29.5184  -40.2704 O.2       4 UNK        -0.5039 
     34 N          22.7286  -27.3281  -40.7370 N.am      5 UNK        -0.4663 
     35 CA         23.8635  -27.1171  -39.8356 C.3       5 UNK         0.0242 
     36 CB         24.1259  -25.6083  -39.7050 C.3       5 UNK        -0.1982 
     37 C          25.1447  -27.8500  -40.2751 C.2       5 UNK         0.5017 
     38 O          25.9519  -28.2049  -39.4160 O.2       5 UNK        -0.5012 
     39 N          25.3094  -28.0654  -41.5878 N.am      6 UNK        -0.4439 
     40 CA         26.4256  -28.8106  -42.1722 C.3       6 UNK         0.0297 
     41 CB         26.7430  -28.2567  -43.5713 C.3       6 UNK        -0.2006 
     42 C          26.1136  -30.3127  -42.2392 C.2       6 UNK         0.4892 
     43 O          26.9970  -31.1253  -41.9650 O.2       6 UNK        -0.5089 
     44 N          24.8640  -30.6532  -42.5877 N.am      7 UNK        -0.4243 
     45 CA         24.3624  -32.0292  -42.6561 C.3       7 UNK         0.0196 
     46 CB         23.0534  -32.0407  -43.4600 C.3       7 UNK        -0.2007 
     47 C          24.1540  -32.6868  -41.2785 C.2       7 UNK         0.5020 
     48 O          24.1062  -33.9148  -41.2065 O.2       7 UNK        -0.5147 
     49 N          24.0229  -31.8652  -40.2265 N.am      8 UNK        -0.4734 
     50 CA         23.7010  -32.2187  -38.8378 C.3       8 UNK         0.0238 
     51 CB         24.7916  -33.1155  -38.2132 C.3       8 UNK        -0.1912 
     52 C          22.2768  -32.7905  -38.6896 C.2       8 UNK         0.5038 
     53 O          22.0512  -33.6789  -37.8650 O.2       8 UNK        -0.5046 
     54 N          21.3441  -32.2626  -39.4908 N.am      9 UNK        -0.4200 
     55 CA         19.9140  -32.5919  -39.4504 C.3       9 UNK         0.0839 
     56 C          19.1833  -31.7657  -38.3605 C.2       9 UNK         0.5513 
     57 N          18.1646  -32.3363  -37.7326 N.am      9 UNK        -0.7519 
     58 O          19.5011  -30.6057  -38.1069 O.2       9 UNK        -0.4960 
     59 C59        19.2458  -32.3962  -40.8346 C.3       10 UNK        -0.0876 
     60 S60        19.8698  -33.5852  -42.0706 S.3       10 UNK        -0.2414 
     61 C61        18.6338  -33.4100  -43.3985 C.3       10 UNK         0.0169 
     62 H62        13.2525  -24.5679  -43.3632 H         1 UNK         0.0903 
     63 H63        14.2681  -23.1563  -43.0588 H         1 UNK         0.0903 
     64 H64        13.7103  -23.5066  -44.6958 H         1 UNK         0.0903 
     65 H65        15.2896  -24.3605  -45.9408 H         1 UNK         0.3096 
     66 H66        17.1830  -25.0988  -46.6646 H         1 UNK         0.1121 
     67 H67        17.5657  -27.5877  -46.5110 H         1 UNK         0.0849 
     68 H68        16.0954  -27.0008  -47.1146 H         1 UNK         0.0849 
     69 H69        17.0959  -27.8979  -43.2648 H         1 UNK         0.0865 
     70 H70        15.9934  -29.1955  -43.0294 H         1 UNK         0.0865 
     71 H71        16.8268  -31.3916  -43.0633 H         1 UNK         0.1346 
     72 H72        20.4886  -32.3510  -45.0714 H         1 UNK         0.1412 
     73 H73        18.9442  -28.3706  -45.2101 H         1 UNK         0.1426 
     74 H74        21.0862  -30.6917  -46.9968 H         1 UNK         0.0716 
     75 H75        21.9181  -30.0403  -45.6120 H         1 UNK         0.0716 
     76 H76        23.2747  -28.2976  -46.4173 H         1 UNK         0.0695 
     77 H77        22.7947  -26.8501  -47.2361 H         1 UNK         0.0695 
     78 H78        23.3719  -26.2484  -44.9905 H         1 UNK         0.0983 
     79 H79        20.6749  -25.8051  -45.8371 H         1 UNK         0.3095 
     80 H80        19.7260  -23.5785  -43.3400 H         1 UNK         0.0454 
     81 H81        19.7122  -21.6781  -44.9173 H         1 UNK         0.0851 
     82 H82        21.3558  -21.9957  -44.3968 H         1 UNK         0.0851 
     83 H83        20.8331  -22.5164  -45.9919 H         1 UNK         0.0851 
     84 H84        18.5401  -23.6214  -45.8077 H         1 UNK         0.2976 
     85 H85        20.4527  -27.0914  -43.4158 H         1 UNK         0.3116 
     86 H86        20.9071  -29.5735  -42.3081 H         1 UNK         0.0646 
     87 H87        19.6015  -27.1089  -41.0401 H         1 UNK         0.0847 
     88 H88        19.4763  -28.7384  -40.3858 H         1 UNK         0.0847 
     89 H89        18.8112  -28.3830  -41.9621 H         1 UNK         0.0847 
     90 H90        22.4358  -26.5418  -41.3008 H         1 UNK         0.3040 
     91 H91        23.5890  -27.5056  -38.8521 H         1 UNK         0.1015 
     92 H92        23.2546  -25.0870  -39.3080 H         1 UNK         0.0786 
     93 H93        24.3783  -25.1574  -40.6658 H         1 UNK         0.0786 
     94 H94        24.9560  -25.4134  -39.0243 H         1 UNK         0.0786 
     95 H95        24.5572  -27.8124  -42.2194 H         1 UNK         0.3172 
     96 H96        27.3148  -28.6775  -41.5520 H         1 UNK         0.0595 
     97 H97        26.9984  -27.1979  -43.5293 H         1 UNK         0.0839 
     98 H98        25.9039  -28.3719  -44.2582 H         1 UNK         0.0839 
     99 H99        27.5949  -28.7778  -44.0103 H         1 UNK         0.0839 
    100 H100       24.2188  -29.9145  -42.8566 H         1 UNK         0.2998 
    101 H101       25.0973  -32.6321  -43.1939 H         1 UNK         0.0822 
    102 H102       22.2866  -31.4223  -42.9926 H         1 UNK         0.0787 
    103 H103       23.2120  -31.6751  -44.4739 H         1 UNK         0.0787 
    104 H104       22.6517  -33.0518  -43.5403 H         1 UNK         0.0787 
    105 H105       23.9920  -30.8715  -40.4243 H         1 UNK         0.3055 
    106 H106       23.6972  -31.2779  -38.2844 H         1 UNK         0.1106 
    107 H107       25.7829  -32.6801  -38.3387 H         1 UNK         0.0828 
    108 H108       24.6265  -33.2405  -37.1424 H         1 UNK         0.0828 
    109 H109       24.8029  -34.1117  -38.6557 H         1 UNK         0.0828 
    110 H110       21.6092  -31.4698  -40.0625 H         1 UNK         0.2931 
    111 H111       19.8153  -33.6467  -39.1843 H         1 UNK         0.0412 
    112 H112       17.6658  -31.8117  -37.0305 H         1 UNK         0.3472 
    113 H113       17.8901  -33.2850  -37.9373 H         1 UNK         0.3472 
    114 H114       19.4054  -31.3808  -41.2022 H         1 UNK         0.0970 
    115 H115       18.1647  -32.5291  -40.7587 H         1 UNK         0.0970 
    116 H116       17.6436  -33.6501  -43.0081 H         1 UNK         0.0612 
    117 H117       18.8445  -34.1431  -44.1783 H         1 UNK         0.0612 
@<TRIPOS>BOND
     1    1    2 1    
     2    1   62 1    
     3    1   63 1    
     4    1   64 1    
     5    2    3 2    
     6    2    4 am   BACKBONE|DICT|INTERRES
     7    4    5 1    
     8    4   65 1    
     9    5    6 1    
    10    5   25 1    
    11    5   66 1    
    12    6    7 1    
    13    6   67 1    
    14    6   68 1    
    15    7    8 1    
    16    8    9 1    
    17    8   69 1    
    18    8   70 1    
    19    9   10 ar   
    20    9   14 ar   
    21   10   11 ar   
    22   10   71 1    
    23   11   12 ar   
    24   11   61 1    
    25   12   13 ar   
    26   12   72 1    
    27   13   14 ar   
    28   13   15 1    
    29   14   73 1    
    30   15   16 1    
    31   15   74 1    
    32   15   75 1    
    33   16   17 1    
    34   17   18 1    
    35   17   76 1    
    36   17   77 1    
    37   18   19 1    
    38   18   27 1    
    39   18   78 1    
    40   19   20 am   BACKBONE|DICT|INTERRES
    41   19   79 1    
    42   20   21 2    
    43   20   22 1    
    44   22   23 1    
    45   22   24 1    
    46   22   80 1    
    47   23   81 1    
    48   23   82 1    
    49   23   83 1    
    50   24   25 am   BACKBONE|DICT|INTERRES
    51   24   84 1    
    52   25   26 2    
    53   27   28 2    
    54   27   29 am   BACKBONE|DICT|INTERRES
    55   29   30 1    
    56   29   85 1    
    57   30   31 1    
    58   30   32 1    
    59   30   86 1    
    60   31   87 1    
    61   31   88 1    
    62   31   89 1    
    63   32   33 2    
    64   32   34 am   BACKBONE|DICT|INTERRES
    65   34   35 1    
    66   34   90 1    
    67   35   36 1    
    68   35   37 1    
    69   35   91 1    
    70   36   92 1    
    71   36   93 1    
    72   36   94 1    
    73   37   38 2    
    74   37   39 am   BACKBONE|DICT|INTERRES
    75   39   40 1    
    76   39   95 1    
    77   40   41 1    
    78   40   42 1    
    79   40   96 1    
    80   41   97 1    
    81   41   98 1    
    82   41   99 1    
    83   42   43 2    
    84   42   44 am   BACKBONE|DICT|INTERRES
    85   44   45 1    
    86   44  100 1    
    87   45   46 1    
    88   45   47 1    
    89   45  101 1    
    90   46  102 1    
    91   46  103 1    
    92   46  104 1    
    93   47   48 2    
    94   47   49 am   BACKBONE|DICT|INTERRES
    95   49   50 1    
    96   49  105 1    
    97   50   51 1    
    98   50   52 1    
    99   50  106 1    
   100   51  107 1    
   101   51  108 1    
   102   51  109 1    
   103   52   53 2    
   104   52   54 am   BACKBONE|DICT|INTERRES
   105   54   55 1    
   106   54  110 1    
   107   55   56 1    
   108   55   59 1    
   109   55  111 1    
   110   56   57 am   BACKBONE|DICT|INTERRES
   111   56   58 2    
   112   57  112 1    
   113   57  113 1    
   114   59   60 1    
   115   59  114 1    
   116   59  115 1    
   117   60   61 1    
   118   61  116 1    
   119   61  117 1    
@<TRIPOS>SUBSTRUCTURE
     1 UNK         1 GROUP             0       ****    0 ROOT    
