@<TRIPOS>MOLECULE
3R8
117   119    1
SMALL
USER_CHARGES


@<TRIPOS>ATOM
      1 CA         16.3245  -23.8335  -40.8996 C.3       0 UNK        -0.2013 
      2 C          16.8994  -24.6613  -42.0386 C.2       0 UNK         0.4866 
      3 O          16.7645  -24.2826  -43.2030 O.2       0 UNK        -0.5176 
      4 N          17.5522  -25.7854  -41.7181 N.am      1 UNK        -0.4884 
      5 CA         18.1545  -26.7298  -42.6684 C.3       1 UNK         0.0853 
      6 C6         18.3028  -28.1470  -42.0528 C.3       10 UNK        -0.0849 
      7 S7         16.7302  -28.8816  -41.4790 S.3       10 UNK        -0.2776 
      8 C8         15.8975  -29.3638  -43.0313 C.3       10 UNK         0.0316 
      9 C9         16.7899  -30.1901  -43.9474 C.ar      10 UNK        -0.0863 
     10 C10        17.0672  -31.5268  -43.6521 C.ar      10 UNK        -0.1009 
     11 C11        17.9153  -32.2702  -44.4774 C.ar      10 UNK        -0.0712 
     12 C12        18.4785  -31.6691  -45.6074 C.ar      10 UNK        -0.0894 
     13 C13        18.2223  -30.3285  -45.9129 C.ar      10 UNK        -0.0745 
     14 C14        17.3566  -29.6034  -45.0821 C.ar      10 UNK        -0.0972 
     15 C15        18.9271  -29.7132  -47.1260 C.3       10 UNK         0.0209 
     16 S16        18.7388  -27.9039  -47.2983 S.3       10 UNK        -0.2568 
     17 C17        20.3045  -27.4159  -48.1058 C.3       10 UNK        -0.0983 
     18 CA         21.3752  -26.8597  -47.1261 C.3       3 UNK         0.0876 
     19 N          20.7922  -25.9296  -46.1561 N.am      3 UNK        -0.4424 
     20 C          21.4663  -25.0479  -45.4100 C.2       2 UNK         0.4918 
     21 O          22.6747  -24.8433  -45.5152 O.2       2 UNK        -0.4875 
     22 CA         20.6562  -24.2816  -44.3456 C.3       2 UNK         0.0481 
     23 CB         20.2056  -22.9198  -44.8958 C.3       2 UNK        -0.1831 
     24 N          19.4857  -25.0014  -43.8222 N.am      2 UNK        -0.4498 
     25 C          19.4983  -26.2020  -43.2253 C.2       1 UNK         0.5027 
     26 O          20.5206  -26.8795  -43.1136 O.2       1 UNK        -0.4969 
     27 C          22.1925  -27.9950  -46.4678 C.2       3 UNK         0.5005 
     28 O          23.1129  -28.5070  -47.1077 O.2       3 UNK        -0.5279 
     29 N          21.8540  -28.3763  -45.2269 N.am      4 UNK        -0.4463 
     30 CA         22.5429  -29.4209  -44.4627 C.3       4 UNK         0.0283 
     31 CB         21.5103  -30.2573  -43.6938 C.3       4 UNK        -0.1875 
     32 C          23.5699  -28.8457  -43.4763 C.2       4 UNK         0.4949 
     33 O          24.5115  -29.5570  -43.1258 O.2       4 UNK        -0.5039 
     34 N          23.3622  -27.5942  -43.0367 N.am      5 UNK        -0.4663 
     35 CA         24.1492  -26.8738  -42.0303 C.3       5 UNK         0.0242 
     36 CB         23.6602  -25.4175  -41.9720 C.3       5 UNK        -0.1982 
     37 C          25.6746  -26.9203  -42.2808 C.2       5 UNK         0.5017 
     38 O          26.0913  -26.8198  -43.4353 O.2       5 UNK        -0.5012 
     39 N          26.5219  -27.0459  -41.2486 N.am      6 UNK        -0.4439 
     40 CA         26.2238  -27.0124  -39.8119 C.3       6 UNK         0.0297 
     41 CB         27.4955  -26.5667  -39.0682 C.3       6 UNK        -0.2006 
     42 C          25.6838  -28.3279  -39.2119 C.2       6 UNK         0.4892 
     43 O          25.4132  -28.3506  -38.0101 O.2       6 UNK        -0.5089 
     44 N          25.5278  -29.3908  -40.0159 N.am      7 UNK        -0.4243 
     45 CA         24.9296  -30.6550  -39.5731 C.3       7 UNK         0.0196 
     46 CB         25.2372  -31.7637  -40.5927 C.3       7 UNK        -0.2007 
     47 C          23.4111  -30.5175  -39.3612 C.2       7 UNK         0.5020 
     48 O          22.7514  -29.7693  -40.0847 O.2       7 UNK        -0.5147 
     49 N          22.8816  -31.2606  -38.3814 N.am      8 UNK        -0.4734 
     50 CA         21.4602  -31.2488  -38.0137 C.3       8 UNK         0.0238 
     51 CB         21.3096  -31.7819  -36.5788 C.3       8 UNK        -0.1912 
     52 C          20.5596  -32.0433  -38.9772 C.2       8 UNK         0.5038 
     53 O          19.3489  -31.8196  -38.9803 O.2       8 UNK        -0.5046 
     54 N          21.1546  -32.9575  -39.7568 N.am      9 UNK        -0.4200 
     55 CA         20.4791  -33.8522  -40.7123 C.3       9 UNK         0.0839 
     56 C          19.5909  -34.9557  -40.0562 C.2       9 UNK         0.5513 
     57 N          19.7718  -35.2693  -38.7784 N.am      9 UNK        -0.7519 
     58 O          18.7434  -35.5567  -40.7113 O.2       9 UNK        -0.4960 
     59 C59        19.7588  -33.0667  -41.8482 C.3       10 UNK        -0.0876 
     60 S60        19.9294  -33.8786  -43.4743 S.3       10 UNK        -0.2414 
     61 C61        18.2440  -33.7174  -44.1420 C.3       10 UNK         0.0169 
     62 H62        16.5164  -24.2879  -39.9278 H         1 UNK         0.0903 
     63 H63        16.7645  -22.8366  -40.9014 H         1 UNK         0.0903 
     64 H64        15.2463  -23.7307  -41.0187 H         1 UNK         0.0903 
     65 H65        17.6408  -26.0426  -40.7450 H         1 UNK         0.3096 
     66 H66        17.4874  -26.8159  -43.5284 H         1 UNK         0.1121 
     67 H67        18.9808  -28.1144  -41.1976 H         1 UNK         0.0849 
     68 H68        18.7682  -28.8329  -42.7611 H         1 UNK         0.0849 
     69 H69        15.0016  -29.9364  -42.7871 H         1 UNK         0.0865 
     70 H70        15.5476  -28.4648  -43.5410 H         1 UNK         0.0865 
     71 H71        16.6364  -31.9796  -42.7695 H         1 UNK         0.1346 
     72 H72        19.1460  -32.2438  -46.2352 H         1 UNK         0.1412 
     73 H73        17.1288  -28.5698  -45.2941 H         1 UNK         0.1426 
     74 H74        18.5577  -30.1896  -48.0349 H         1 UNK         0.0716 
     75 H75        19.9891  -29.9532  -47.0592 H         1 UNK         0.0716 
     76 H76        20.6934  -28.2421  -48.7047 H         1 UNK         0.0695 
     77 H77        20.0531  -26.6361  -48.8263 H         1 UNK         0.0695 
     78 H78        22.0920  -26.2903  -47.7225 H         1 UNK         0.0983 
     79 H79        19.7959  -26.0188  -46.0174 H         1 UNK         0.3095 
     80 H80        21.3240  -24.0996  -43.5019 H         1 UNK         0.0454 
     81 H81        21.0565  -22.3463  -45.2666 H         1 UNK         0.0851 
     82 H82        19.5021  -23.0310  -45.7217 H         1 UNK         0.0851 
     83 H83        19.7247  -22.3188  -44.1238 H         1 UNK         0.0851 
     84 H84        18.5935  -24.5146  -43.8479 H         1 UNK         0.2976 
     85 H85        21.1212  -27.8740  -44.7380 H         1 UNK         0.3116 
     86 H86        23.0736  -30.0913  -45.1419 H         1 UNK         0.0646 
     87 H87        20.9852  -29.6645  -42.9447 H         1 UNK         0.0847 
     88 H88        20.7710  -30.6947  -44.3621 H         1 UNK         0.0847 
     89 H89        21.9992  -31.0792  -43.1690 H         1 UNK         0.0847 
     90 H90        22.5098  -27.1367  -43.3363 H         1 UNK         0.3040 
     91 H91        23.9061  -27.3520  -41.0835 H         1 UNK         0.1015 
     92 H92        22.6005  -25.3649  -41.7210 H         1 UNK         0.0786 
     93 H93        23.8066  -24.9086  -42.9256 H         1 UNK         0.0786 
     94 H94        24.1999  -24.8487  -41.2141 H         1 UNK         0.0786 
     95 H95        27.5042  -27.1097  -41.4747 H         1 UNK         0.3172 
     96 H96        25.4633  -26.2499  -39.6353 H         1 UNK         0.0595 
     97 H97        28.3052  -27.2883  -39.1840 H         1 UNK         0.0839 
     98 H98        27.3101  -26.4564  -37.9986 H         1 UNK         0.0839 
     99 H99        27.8507  -25.6012  -39.4292 H         1 UNK         0.0839 
    100 H100       25.7076  -29.2966  -41.0068 H         1 UNK         0.2998 
    101 H101       25.3927  -30.9308  -38.6228 H         1 UNK         0.0822 
    102 H102       26.3070  -31.8417  -40.7870 H         1 UNK         0.0787 
    103 H103       24.9045  -32.7347  -40.2241 H         1 UNK         0.0787 
    104 H104       24.7341  -31.5921  -41.5442 H         1 UNK         0.0787 
    105 H105       23.4897  -31.8497  -37.8294 H         1 UNK         0.3055 
    106 H106       21.1080  -30.2144  -38.0307 H         1 UNK         0.1106 
    107 H107       21.6584  -32.8113  -36.4889 H         1 UNK         0.0828 
    108 H108       21.8699  -31.1734  -35.8687 H         1 UNK         0.0828 
    109 H109       20.2655  -31.7634  -36.2625 H         1 UNK         0.0828 
    110 H110       22.1528  -33.0767  -39.6702 H         1 UNK         0.2931 
    111 H111       21.3042  -34.4045  -41.1636 H         1 UNK         0.0412 
    112 H112       20.4697  -34.7965  -38.2274 H         1 UNK         0.3472 
    113 H113       19.2010  -35.9885  -38.3621 H         1 UNK         0.3472 
    114 H114       18.7076  -32.9070  -41.6023 H         1 UNK         0.0970 
    115 H115       20.1800  -32.0669  -41.9509 H         1 UNK         0.0970 
    116 H116       18.1625  -34.3251  -45.0443 H         1 UNK         0.0612 
    117 H117       17.5281  -34.1292  -43.4286 H         1 UNK         0.0612 
@<TRIPOS>BOND
     1    1    2 1    
     2    1   62 1    
     3    1   63 1    
     4    1   64 1    
     5    2    3 2    
     6    2    4 am   BACKBONE|DICT|INTERRES
     7    4    5 1    
     8    4   65 1    
     9    5    6 1    
    10    5   25 1    
    11    5   66 1    
    12    6    7 1    
    13    6   67 1    
    14    6   68 1    
    15    7    8 1    
    16    8    9 1    
    17    8   69 1    
    18    8   70 1    
    19    9   10 ar   
    20    9   14 ar   
    21   10   11 ar   
    22   10   71 1    
    23   11   12 ar   
    24   11   61 1    
    25   12   13 ar   
    26   12   72 1    
    27   13   14 ar   
    28   13   15 1    
    29   14   73 1    
    30   15   16 1    
    31   15   74 1    
    32   15   75 1    
    33   16   17 1    
    34   17   18 1    
    35   17   76 1    
    36   17   77 1    
    37   18   19 1    
    38   18   27 1    
    39   18   78 1    
    40   19   20 am   BACKBONE|DICT|INTERRES
    41   19   79 1    
    42   20   21 2    
    43   20   22 1    
    44   22   23 1    
    45   22   24 1    
    46   22   80 1    
    47   23   81 1    
    48   23   82 1    
    49   23   83 1    
    50   24   25 am   BACKBONE|DICT|INTERRES
    51   24   84 1    
    52   25   26 2    
    53   27   28 2    
    54   27   29 am   BACKBONE|DICT|INTERRES
    55   29   30 1    
    56   29   85 1    
    57   30   31 1    
    58   30   32 1    
    59   30   86 1    
    60   31   87 1    
    61   31   88 1    
    62   31   89 1    
    63   32   33 2    
    64   32   34 am   BACKBONE|DICT|INTERRES
    65   34   35 1    
    66   34   90 1    
    67   35   36 1    
    68   35   37 1    
    69   35   91 1    
    70   36   92 1    
    71   36   93 1    
    72   36   94 1    
    73   37   38 2    
    74   37   39 am   BACKBONE|DICT|INTERRES
    75   39   40 1    
    76   39   95 1    
    77   40   41 1    
    78   40   42 1    
    79   40   96 1    
    80   41   97 1    
    81   41   98 1    
    82   41   99 1    
    83   42   43 2    
    84   42   44 am   BACKBONE|DICT|INTERRES
    85   44   45 1    
    86   44  100 1    
    87   45   46 1    
    88   45   47 1    
    89   45  101 1    
    90   46  102 1    
    91   46  103 1    
    92   46  104 1    
    93   47   48 2    
    94   47   49 am   BACKBONE|DICT|INTERRES
    95   49   50 1    
    96   49  105 1    
    97   50   51 1    
    98   50   52 1    
    99   50  106 1    
   100   51  107 1    
   101   51  108 1    
   102   51  109 1    
   103   52   53 2    
   104   52   54 am   BACKBONE|DICT|INTERRES
   105   54   55 1    
   106   54  110 1    
   107   55   56 1    
   108   55   59 1    
   109   55  111 1    
   110   56   57 am   BACKBONE|DICT|INTERRES
   111   56   58 2    
   112   57  112 1    
   113   57  113 1    
   114   59   60 1    
   115   59  114 1    
   116   59  115 1    
   117   60   61 1    
   118   61  116 1    
   119   61  117 1    
@<TRIPOS>SUBSTRUCTURE
     1 UNK         1 GROUP             0       ****    0 ROOT    
