@<TRIPOS>MOLECULE
3R8
117   119    1
SMALL
USER_CHARGES


@<TRIPOS>ATOM
      1 CA         15.5341  -22.8902  -41.8679 C.3       0 UNK        -0.2013 
      2 C          15.9833  -23.5615  -43.1572 C.2       0 UNK         0.4866 
      3 O          15.6932  -23.0582  -44.2434 O.2       0 UNK        -0.5176 
      4 N          16.6791  -24.6997  -43.0452 N.am      1 UNK        -0.4884 
      5 CA         17.2332  -25.4636  -44.1697 C.3       1 UNK         0.0853 
      6 C6         17.7383  -26.8640  -43.7327 C.3       10 UNK        -0.0849 
      7 S7         16.5345  -27.8251  -42.7531 S.3       10 UNK        -0.2776 
      8 C8         17.6477  -28.8387  -41.7224 C.3       10 UNK         0.0316 
      9 C9         18.3354  -29.9162  -42.5484 C.ar      10 UNK        -0.0863 
     10 C10        17.7472  -31.1760  -42.6906 C.ar      10 UNK        -0.1009 
     11 C11        18.3513  -32.1574  -43.4826 C.ar      10 UNK        -0.0712 
     12 C12        19.5474  -31.8670  -44.1464 C.ar      10 UNK        -0.0894 
     13 C13        20.1544  -30.6177  -43.9955 C.ar      10 UNK        -0.0745 
     14 C14        19.5503  -29.6517  -43.1859 C.ar      10 UNK        -0.0972 
     15 C15        21.4577  -30.2994  -44.7091 C.3       10 UNK         0.0209 
     16 S16        21.1661  -29.1378  -46.0783 S.3       10 UNK        -0.2568 
     17 C17        22.6260  -28.0411  -45.9711 C.3       10 UNK        -0.0983 
     18 CA         22.3493  -26.6739  -45.2823 C.3       3 UNK         0.0876 
     19 N          21.1599  -26.0243  -45.8367 N.am      3 UNK        -0.4424 
     20 C          21.1087  -24.8268  -46.4303 C.2       2 UNK         0.4918 
     21 O          22.0828  -24.0909  -46.5860 O.2       2 UNK        -0.4875 
     22 CA         19.7199  -24.3639  -46.9179 C.3       2 UNK         0.0481 
     23 CB         19.5376  -24.7042  -48.4055 C.3       2 UNK        -0.1831 
     24 N          18.6012  -24.9290  -46.1481 N.am      2 UNK        -0.4498 
     25 C          18.3903  -24.6955  -44.8445 C.2       1 UNK         0.5027 
     26 O          19.1226  -23.9732  -44.1631 O.2       1 UNK        -0.4969 
     27 C          22.2755  -26.7711  -43.7409 C.2       3 UNK         0.5005 
     28 O          22.9696  -27.6062  -43.1573 O.2       3 UNK        -0.5279 
     29 N          21.4650  -25.9200  -43.0845 N.am      4 UNK        -0.4463 
     30 CA         21.2481  -25.9050  -41.6259 C.3       4 UNK         0.0283 
     31 CB         20.2028  -24.8382  -41.2602 C.3       4 UNK        -0.1875 
     32 C          22.5143  -25.6948  -40.7739 C.2       4 UNK         0.4949 
     33 O          22.5264  -26.0937  -39.6100 O.2       4 UNK        -0.5039 
     34 N          23.5579  -25.0948  -41.3633 N.am      5 UNK        -0.4663 
     35 CA         24.8869  -24.9546  -40.7618 C.3       5 UNK         0.0242 
     36 CB         25.7265  -23.9920  -41.6172 C.3       5 UNK        -0.1982 
     37 C          25.6218  -26.2979  -40.5827 C.2       5 UNK         0.5017 
     38 O          26.4859  -26.3907  -39.7100 O.2       5 UNK        -0.5012 
     39 N          25.2709  -27.3009  -41.3996 N.am      6 UNK        -0.4439 
     40 CA         25.7658  -28.6718  -41.3043 C.3       6 UNK         0.0297 
     41 CB         26.0943  -29.2044  -42.7109 C.3       6 UNK        -0.2006 
     42 C          24.7246  -29.5538  -40.6020 C.2       6 UNK         0.4892 
     43 O          25.0398  -30.1435  -39.5674 O.2       6 UNK        -0.5089 
     44 N          23.5094  -29.6072  -41.1730 N.am      7 UNK        -0.4243 
     45 CA         22.3599  -30.4186  -40.7512 C.3       7 UNK         0.0196 
     46 CB         21.7070  -29.7981  -39.4957 C.3       7 UNK        -0.2007 
     47 C          22.7043  -31.9198  -40.6151 C.2       7 UNK         0.5020 
     48 O          23.4558  -32.4418  -41.4411 O.2       7 UNK        -0.5147 
     49 N          22.1534  -32.5774  -39.5826 N.am      8 UNK        -0.4734 
     50 CA         22.4568  -33.9422  -39.1253 C.3       8 UNK         0.0238 
     51 CB         23.8704  -33.9856  -38.5048 C.3       8 UNK        -0.1912 
     52 C          22.2408  -35.0441  -40.1839 C.2       8 UNK         0.5038 
     53 O          23.0301  -35.9897  -40.2518 O.2       8 UNK        -0.5046 
     54 N          21.1773  -34.9114  -40.9868 N.am      9 UNK        -0.4200 
     55 CA         20.7540  -35.9178  -41.9715 C.3       9 UNK         0.0839 
     56 C          20.2184  -37.2304  -41.3295 C.2       9 UNK         0.5513 
     57 N          20.2282  -38.3289  -42.0730 N.am      9 UNK        -0.7519 
     58 O          19.7758  -37.2613  -40.1823 O.2       9 UNK        -0.4960 
     59 C59        19.7744  -35.3237  -43.0161 C.3       10 UNK        -0.0876 
     60 S60        18.2212  -34.6635  -42.3148 S.3       10 UNK        -0.2414 
     61 C61        17.6948  -33.5215  -43.6304 C.3       10 UNK         0.0169 
     62 H62        15.8492  -23.4479  -40.9861 H         1 UNK         0.0903 
     63 H63        15.9542  -21.8869  -41.8020 H         1 UNK         0.0903 
     64 H64        14.4478  -22.8074  -41.8463 H         1 UNK         0.0903 
     65 H65        16.8721  -25.0766  -42.1289 H         1 UNK         0.3096 
     66 H66        16.4339  -25.5949  -44.9028 H         1 UNK         0.1121 
     67 H67        18.0040  -27.4618  -44.6071 H         1 UNK         0.0849 
     68 H68        18.6520  -26.7671  -43.1464 H         1 UNK         0.0849 
     69 H69        18.3848  -28.2041  -41.2276 H         1 UNK         0.0865 
     70 H70        17.0647  -29.3001  -40.9238 H         1 UNK         0.0865 
     71 H71        16.8112  -31.3908  -42.1929 H         1 UNK         0.1346 
     72 H72        20.0063  -32.6110  -44.7821 H         1 UNK         0.1412 
     73 H73        20.0210  -28.6858  -43.0736 H         1 UNK         0.1426 
     74 H74        21.9211  -31.2049  -45.1035 H         1 UNK         0.0716 
     75 H75        22.1648  -29.8873  -43.9910 H         1 UNK         0.0716 
     76 H76        23.4624  -28.5674  -45.5073 H         1 UNK         0.0695 
     77 H77        22.9486  -27.8522  -46.9960 H         1 UNK         0.0695 
     78 H78        23.2223  -26.0460  -45.4723 H         1 UNK         0.0983 
     79 H79        20.3118  -26.5696  -45.7904 H         1 UNK         0.3095 
     80 H80        19.6812  -23.2778  -46.8108 H         1 UNK         0.0454 
     81 H81        20.3402  -24.2726  -49.0054 H         1 UNK         0.0851 
     82 H82        19.5457  -25.7811  -48.5790 H         1 UNK         0.0851 
     83 H83        18.5992  -24.3072  -48.7927 H         1 UNK         0.0851 
     84 H84        17.9677  -25.5358  -46.6500 H         1 UNK         0.2976 
     85 H85        20.9479  -25.2335  -43.6208 H         1 UNK         0.3116 
     86 H86        20.8454  -26.8819  -41.3509 H         1 UNK         0.0646 
     87 H87        20.0637  -24.7765  -40.1798 H         1 UNK         0.0847 
     88 H88        19.2284  -25.0640  -41.6870 H         1 UNK         0.0847 
     89 H89        20.4993  -23.8474  -41.6064 H         1 UNK         0.0847 
     90 H90        23.4493  -24.7754  -42.3147 H         1 UNK         0.3040 
     91 H91        24.7644  -24.5167  -39.7684 H         1 UNK         0.1015 
     92 H92        25.2561  -23.0111  -41.6897 H         1 UNK         0.0786 
     93 H93        25.8721  -24.3723  -42.6292 H         1 UNK         0.0786 
     94 H94        26.7150  -23.8432  -41.1800 H         1 UNK         0.0786 
     95 H95        24.5042  -27.1495  -42.0486 H         1 UNK         0.3172 
     96 H96        26.6856  -28.7030  -40.7163 H         1 UNK         0.0595 
     97 H97        26.4337  -30.2401  -42.6644 H         1 UNK         0.0839 
     98 H98        26.8912  -28.6231  -43.1746 H         1 UNK         0.0839 
     99 H99        25.2315  -29.1744  -43.3773 H         1 UNK         0.0839 
    100 H100       23.3590  -29.0443  -42.0065 H         1 UNK         0.2998 
    101 H101       21.6359  -30.3563  -41.5607 H         1 UNK         0.0822 
    102 H102       22.3493  -29.8869  -38.6184 H         1 UNK         0.0787 
    103 H103       21.5047  -28.7376  -39.6459 H         1 UNK         0.0787 
    104 H104       20.7504  -30.2684  -39.2657 H         1 UNK         0.0787 
    105 H105       21.5275  -32.0531  -38.9866 H         1 UNK         0.3055 
    106 H106       21.7457  -34.1634  -38.3275 H         1 UNK         0.1106 
    107 H107       24.6440  -33.8172  -39.2550 H         1 UNK         0.0828 
    108 H108       23.9875  -33.2284  -37.7296 H         1 UNK         0.0828 
    109 H109       24.0694  -34.9530  -38.0418 H         1 UNK         0.0828 
    110 H110       20.5607  -34.1226  -40.8610 H         1 UNK         0.2931 
    111 H111       21.6553  -36.1980  -42.5212 H         1 UNK         0.0412 
    112 H112       19.8770  -39.1889  -41.6806 H         1 UNK         0.3472 
    113 H113       20.5877  -38.3198  -43.0152 H         1 UNK         0.3472 
    114 H114       19.5217  -36.0690  -43.7724 H         1 UNK         0.0970 
    115 H115       20.2876  -34.5284  -43.5547 H         1 UNK         0.0970 
    116 H116       16.6101  -33.4132  -43.5841 H         1 UNK         0.0612 
    117 H117       17.9144  -33.9526  -44.6085 H         1 UNK         0.0612 
@<TRIPOS>BOND
     1    1    2 1    
     2    1   62 1    
     3    1   63 1    
     4    1   64 1    
     5    2    3 2    
     6    2    4 am   BACKBONE|DICT|INTERRES
     7    4    5 1    
     8    4   65 1    
     9    5    6 1    
    10    5   25 1    
    11    5   66 1    
    12    6    7 1    
    13    6   67 1    
    14    6   68 1    
    15    7    8 1    
    16    8    9 1    
    17    8   69 1    
    18    8   70 1    
    19    9   10 ar   
    20    9   14 ar   
    21   10   11 ar   
    22   10   71 1    
    23   11   12 ar   
    24   11   61 1    
    25   12   13 ar   
    26   12   72 1    
    27   13   14 ar   
    28   13   15 1    
    29   14   73 1    
    30   15   16 1    
    31   15   74 1    
    32   15   75 1    
    33   16   17 1    
    34   17   18 1    
    35   17   76 1    
    36   17   77 1    
    37   18   19 1    
    38   18   27 1    
    39   18   78 1    
    40   19   20 am   BACKBONE|DICT|INTERRES
    41   19   79 1    
    42   20   21 2    
    43   20   22 1    
    44   22   23 1    
    45   22   24 1    
    46   22   80 1    
    47   23   81 1    
    48   23   82 1    
    49   23   83 1    
    50   24   25 am   BACKBONE|DICT|INTERRES
    51   24   84 1    
    52   25   26 2    
    53   27   28 2    
    54   27   29 am   BACKBONE|DICT|INTERRES
    55   29   30 1    
    56   29   85 1    
    57   30   31 1    
    58   30   32 1    
    59   30   86 1    
    60   31   87 1    
    61   31   88 1    
    62   31   89 1    
    63   32   33 2    
    64   32   34 am   BACKBONE|DICT|INTERRES
    65   34   35 1    
    66   34   90 1    
    67   35   36 1    
    68   35   37 1    
    69   35   91 1    
    70   36   92 1    
    71   36   93 1    
    72   36   94 1    
    73   37   38 2    
    74   37   39 am   BACKBONE|DICT|INTERRES
    75   39   40 1    
    76   39   95 1    
    77   40   41 1    
    78   40   42 1    
    79   40   96 1    
    80   41   97 1    
    81   41   98 1    
    82   41   99 1    
    83   42   43 2    
    84   42   44 am   BACKBONE|DICT|INTERRES
    85   44   45 1    
    86   44  100 1    
    87   45   46 1    
    88   45   47 1    
    89   45  101 1    
    90   46  102 1    
    91   46  103 1    
    92   46  104 1    
    93   47   48 2    
    94   47   49 am   BACKBONE|DICT|INTERRES
    95   49   50 1    
    96   49  105 1    
    97   50   51 1    
    98   50   52 1    
    99   50  106 1    
   100   51  107 1    
   101   51  108 1    
   102   51  109 1    
   103   52   53 2    
   104   52   54 am   BACKBONE|DICT|INTERRES
   105   54   55 1    
   106   54  110 1    
   107   55   56 1    
   108   55   59 1    
   109   55  111 1    
   110   56   57 am   BACKBONE|DICT|INTERRES
   111   56   58 2    
   112   57  112 1    
   113   57  113 1    
   114   59   60 1    
   115   59  114 1    
   116   59  115 1    
   117   60   61 1    
   118   61  116 1    
   119   61  117 1    
@<TRIPOS>SUBSTRUCTURE
     1 UNK         1 GROUP             0       ****    0 ROOT    
