@<TRIPOS>MOLECULE
3R8
117   119    1
SMALL
USER_CHARGES


@<TRIPOS>ATOM
      1 CA         16.3973  -24.7780  -42.2695 C.3       0 UNK        -0.2013 
      2 C          17.3907  -25.7021  -42.9565 C.2       0 UNK         0.4866 
      3 O          18.0239  -26.5177  -42.2876 O.2       0 UNK        -0.5176 
      4 N          17.5267  -25.5809  -44.2853 N.am      1 UNK        -0.4884 
      5 CA         18.4402  -26.3526  -45.1450 C.3       1 UNK         0.0853 
      6 C6         18.0809  -27.8665  -45.2233 C.3       10 UNK        -0.0849 
      7 S7         16.3577  -28.1952  -45.7289 S.3       10 UNK        -0.2776 
      8 C8         15.6096  -28.8153  -44.1835 C.3       10 UNK         0.0316 
      9 C9         16.3120  -30.0566  -43.6460 C.ar      10 UNK        -0.0863 
     10 C10        16.2810  -31.2536  -44.3671 C.ar      10 UNK        -0.1009 
     11 C11        16.9277  -32.3987  -43.8909 C.ar      10 UNK        -0.0712 
     12 C12        17.6057  -32.3311  -42.6649 C.ar      10 UNK        -0.0894 
     13 C13        17.6492  -31.1386  -41.9358 C.ar      10 UNK        -0.0745 
     14 C14        16.9959  -30.0063  -42.4278 C.ar      10 UNK        -0.0972 
     15 C15        18.4098  -31.0807  -40.6200 C.3       10 UNK         0.0209 
     16 S16        20.1271  -30.5315  -40.8697 S.3       10 UNK        -0.2568 
     17 C17        20.0016  -28.7631  -40.4555 C.3       10 UNK        -0.0983 
     18 CA         21.2301  -27.9452  -40.9284 C.3       3 UNK         0.0876 
     19 N          21.3015  -27.8219  -42.3937 N.am      3 UNK        -0.4424 
     20 C          22.3448  -27.3157  -43.0735 C.2       2 UNK         0.4918 
     21 O          23.3921  -26.9683  -42.5329 O.2       2 UNK        -0.4875 
     22 CA         22.1959  -27.0795  -44.5884 C.3       2 UNK         0.0481 
     23 CB         23.0213  -28.0941  -45.3929 C.3       2 UNK        -0.1831 
     24 N          20.8032  -27.0800  -45.0436 N.am      2 UNK        -0.4498 
     25 C          19.9200  -26.1129  -44.7507 C.2       1 UNK         0.5027 
     26 O          20.2423  -25.0758  -44.1644 O.2       1 UNK        -0.4969 
     27 C          21.2932  -26.5840  -40.1983 C.2       3 UNK         0.5005 
     28 O          21.6481  -26.5548  -39.0192 O.2       3 UNK        -0.5279 
     29 N          20.9940  -25.4796  -40.8995 N.am      4 UNK        -0.4463 
     30 CA         21.1921  -24.1138  -40.4098 C.3       4 UNK         0.0283 
     31 CB         20.4339  -23.1378  -41.3233 C.3       4 UNK        -0.1875 
     32 C          22.6771  -23.7066  -40.3057 C.2       4 UNK         0.4949 
     33 O          22.9828  -22.7799  -39.5548 O.2       4 UNK        -0.5039 
     34 N          23.5630  -24.3781  -41.0567 N.am      5 UNK        -0.4663 
     35 CA         25.0006  -24.0971  -41.1116 C.3       5 UNK         0.0242 
     36 CB         25.4070  -23.8540  -42.5752 C.3       5 UNK        -0.1982 
     37 C          25.8385  -25.2356  -40.5089 C.2       5 UNK         0.5017 
     38 O          26.7898  -24.9584  -39.7774 O.2       5 UNK        -0.5012 
     39 N          25.4871  -26.4853  -40.8314 N.am      6 UNK        -0.4439 
     40 CA         26.1785  -27.7021  -40.4198 C.3       6 UNK         0.0297 
     41 CB         27.3283  -28.0139  -41.4014 C.3       6 UNK        -0.2006 
     42 C          25.1403  -28.8248  -40.2919 C.2       6 UNK         0.4892 
     43 O          24.4741  -28.9025  -39.2595 O.2       6 UNK        -0.5089 
     44 N          25.0027  -29.6597  -41.3288 N.am      7 UNK        -0.4243 
     45 CA         24.0366  -30.7515  -41.4087 C.3       7 UNK         0.0196 
     46 CB         24.6381  -32.0316  -40.8030 C.3       7 UNK        -0.2007 
     47 C          23.6469  -30.9723  -42.8737 C.2       7 UNK         0.5020 
     48 O          24.4943  -30.8188  -43.7559 O.2       7 UNK        -0.5147 
     49 N          22.3828  -31.3485  -43.0935 N.am      8 UNK        -0.4734 
     50 CA         21.8342  -31.7889  -44.3755 C.3       8 UNK         0.0238 
     51 CB         20.4924  -31.0702  -44.6311 C.3       8 UNK        -0.1912 
     52 C          21.7352  -33.3242  -44.3535 C.2       8 UNK         0.5038 
     53 O          22.7769  -33.9814  -44.3205 O.2       8 UNK        -0.5046 
     54 N          20.5129  -33.8762  -44.3639 N.am      9 UNK        -0.4200 
     55 CA         20.2581  -35.3264  -44.3126 C.3       9 UNK         0.0839 
     56 C          20.5078  -36.0012  -42.9297 C.2       9 UNK         0.5513 
     57 N          20.7369  -35.2558  -41.8546 N.am      9 UNK        -0.7519 
     58 O          20.5058  -37.2261  -42.8368 O.2       9 UNK        -0.4960 
     59 C59        18.8797  -35.6971  -44.9245 C.3       10 UNK        -0.0876 
     60 S60        17.4281  -35.1992  -43.9283 S.3       10 UNK        -0.2414 
     61 C61        16.8737  -33.6641  -44.7503 C.3       10 UNK         0.0169 
     62 H62        16.8994  -24.1968  -41.4968 H         1 UNK         0.0903 
     63 H63        15.9331  -24.0836  -42.9695 H         1 UNK         0.0903 
     64 H64        15.6088  -25.3631  -41.7971 H         1 UNK         0.0903 
     65 H65        16.9898  -24.8732  -44.7667 H         1 UNK         0.3096 
     66 H66        18.3354  -25.9348  -46.1476 H         1 UNK         0.1121 
     67 H67        18.2906  -28.3546  -44.2715 H         1 UNK         0.0849 
     68 H68        18.7027  -28.3734  -45.9626 H         1 UNK         0.0849 
     69 H69        15.6100  -28.0169  -43.4407 H         1 UNK         0.0865 
     70 H70        14.5616  -29.0531  -44.3704 H         1 UNK         0.0865 
     71 H71        15.7574  -31.2877  -45.3132 H         1 UNK         0.1346 
     72 H72        18.1200  -33.1955  -42.2706 H         1 UNK         0.1412 
     73 H73        17.0309  -29.0815  -41.8679 H         1 UNK         0.1426 
     74 H74        18.4243  -32.0681  -40.1562 H         1 UNK         0.0716 
     75 H75        17.9000  -30.4245  -39.9128 H         1 UNK         0.0716 
     76 H76        19.8903  -28.7046  -39.3707 H         1 UNK         0.0695 
     77 H77        19.0832  -28.3558  -40.8757 H         1 UNK         0.0695 
     78 H78        22.1262  -28.4757  -40.6081 H         1 UNK         0.0983 
     79 H79        20.4601  -28.0633  -42.8946 H         1 UNK         0.3095 
     80 H80        22.6128  -26.0910  -44.7934 H         1 UNK         0.0454 
     81 H81        22.9944  -27.8722  -46.4597 H         1 UNK         0.0851 
     82 H82        22.6711  -29.1139  -45.2531 H         1 UNK         0.0851 
     83 H83        24.0684  -28.0727  -45.0868 H         1 UNK         0.0851 
     84 H84        20.4949  -27.8859  -45.5669 H         1 UNK         0.2976 
     85 H85        20.6644  -25.5798  -41.8519 H         1 UNK         0.3116 
     86 H86        20.7607  -24.0460  -39.4088 H         1 UNK         0.0646 
     87 H87        20.8363  -23.1386  -42.3370 H         1 UNK         0.0847 
     88 H88        20.5047  -22.1164  -40.9467 H         1 UNK         0.0847 
     89 H89        19.3748  -23.3882  -41.3830 H         1 UNK         0.0847 
     90 H90        23.2331  -25.1525  -41.6201 H         1 UNK         0.3040 
     91 H91        25.2339  -23.1920  -40.5460 H         1 UNK         0.1015 
     92 H92        25.1929  -24.7182  -43.2059 H         1 UNK         0.0786 
     93 H93        26.4751  -23.6470  -42.6554 H         1 UNK         0.0786 
     94 H94        24.8792  -22.9968  -42.9936 H         1 UNK         0.0786 
     95 H95        24.6800  -26.6320  -41.4386 H         1 UNK         0.3172 
     96 H96        26.6065  -27.5583  -39.4253 H         1 UNK         0.0595 
     97 H97        26.9873  -28.0554  -42.4365 H         1 UNK         0.0839 
     98 H98        27.8009  -28.9683  -41.1648 H         1 UNK         0.0839 
     99 H99        28.1052  -27.2512  -41.3448 H         1 UNK         0.0839 
    100 H100       25.5436  -29.5120  -42.1715 H         1 UNK         0.2998 
    101 H101       23.1407  -30.4881  -40.8457 H         1 UNK         0.0822 
    102 H102       23.9348  -32.8630  -40.8683 H         1 UNK         0.0787 
    103 H103       25.5490  -32.3319  -41.3225 H         1 UNK         0.0787 
    104 H104       24.8821  -31.8954  -39.7493 H         1 UNK         0.0787 
    105 H105       21.7613  -31.4280  -42.2980 H         1 UNK         0.3055 
    106 H106       22.5161  -31.5346  -45.1899 H         1 UNK         0.1106 
    107 H107       20.0430  -31.3836  -45.5745 H         1 UNK         0.0828 
    108 H108       19.7723  -31.2540  -43.8378 H         1 UNK         0.0828 
    109 H109       20.6259  -29.9926  -44.6857 H         1 UNK         0.0828 
    110 H110       19.6999  -33.2790  -44.3676 H         1 UNK         0.2931 
    111 H111       20.9980  -35.7827  -44.9736 H         1 UNK         0.0412 
    112 H112       20.7496  -34.2522  -41.9206 H         1 UNK         0.3472 
    113 H113       20.9016  -35.7073  -40.9687 H         1 UNK         0.3472 
    114 H114       18.8232  -36.7794  -45.0556 H         1 UNK         0.0970 
    115 H115       18.7984  -35.2926  -45.9340 H         1 UNK         0.0970 
    116 H116       15.8446  -33.8232  -45.0761 H         1 UNK         0.0612 
    117 H117       17.4541  -33.4886  -45.6563 H         1 UNK         0.0612 
@<TRIPOS>BOND
     1    1    2 1    
     2    1   62 1    
     3    1   63 1    
     4    1   64 1    
     5    2    3 2    
     6    2    4 am   BACKBONE|DICT|INTERRES
     7    4    5 1    
     8    4   65 1    
     9    5    6 1    
    10    5   25 1    
    11    5   66 1    
    12    6    7 1    
    13    6   67 1    
    14    6   68 1    
    15    7    8 1    
    16    8    9 1    
    17    8   69 1    
    18    8   70 1    
    19    9   10 ar   
    20    9   14 ar   
    21   10   11 ar   
    22   10   71 1    
    23   11   12 ar   
    24   11   61 1    
    25   12   13 ar   
    26   12   72 1    
    27   13   14 ar   
    28   13   15 1    
    29   14   73 1    
    30   15   16 1    
    31   15   74 1    
    32   15   75 1    
    33   16   17 1    
    34   17   18 1    
    35   17   76 1    
    36   17   77 1    
    37   18   19 1    
    38   18   27 1    
    39   18   78 1    
    40   19   20 am   BACKBONE|DICT|INTERRES
    41   19   79 1    
    42   20   21 2    
    43   20   22 1    
    44   22   23 1    
    45   22   24 1    
    46   22   80 1    
    47   23   81 1    
    48   23   82 1    
    49   23   83 1    
    50   24   25 am   BACKBONE|DICT|INTERRES
    51   24   84 1    
    52   25   26 2    
    53   27   28 2    
    54   27   29 am   BACKBONE|DICT|INTERRES
    55   29   30 1    
    56   29   85 1    
    57   30   31 1    
    58   30   32 1    
    59   30   86 1    
    60   31   87 1    
    61   31   88 1    
    62   31   89 1    
    63   32   33 2    
    64   32   34 am   BACKBONE|DICT|INTERRES
    65   34   35 1    
    66   34   90 1    
    67   35   36 1    
    68   35   37 1    
    69   35   91 1    
    70   36   92 1    
    71   36   93 1    
    72   36   94 1    
    73   37   38 2    
    74   37   39 am   BACKBONE|DICT|INTERRES
    75   39   40 1    
    76   39   95 1    
    77   40   41 1    
    78   40   42 1    
    79   40   96 1    
    80   41   97 1    
    81   41   98 1    
    82   41   99 1    
    83   42   43 2    
    84   42   44 am   BACKBONE|DICT|INTERRES
    85   44   45 1    
    86   44  100 1    
    87   45   46 1    
    88   45   47 1    
    89   45  101 1    
    90   46  102 1    
    91   46  103 1    
    92   46  104 1    
    93   47   48 2    
    94   47   49 am   BACKBONE|DICT|INTERRES
    95   49   50 1    
    96   49  105 1    
    97   50   51 1    
    98   50   52 1    
    99   50  106 1    
   100   51  107 1    
   101   51  108 1    
   102   51  109 1    
   103   52   53 2    
   104   52   54 am   BACKBONE|DICT|INTERRES
   105   54   55 1    
   106   54  110 1    
   107   55   56 1    
   108   55   59 1    
   109   55  111 1    
   110   56   57 am   BACKBONE|DICT|INTERRES
   111   56   58 2    
   112   57  112 1    
   113   57  113 1    
   114   59   60 1    
   115   59  114 1    
   116   59  115 1    
   117   60   61 1    
   118   61  116 1    
   119   61  117 1    
@<TRIPOS>SUBSTRUCTURE
     1 UNK         1 GROUP             0       ****    0 ROOT    
