@<TRIPOS>MOLECULE
3R8
117   119    1
SMALL
USER_CHARGES


@<TRIPOS>ATOM
      1 CA         18.7115  -27.3522  -41.2602 C.3       0 UNK        -0.2013 
      2 C          18.2802  -26.9123  -42.6509 C.2       0 UNK         0.4866 
      3 O          18.9692  -27.2066  -43.6232 O.2       0 UNK        -0.5176 
      4 N          17.1536  -26.1950  -42.7608 N.am      1 UNK        -0.4884 
      5 CA         16.6171  -25.6340  -44.0113 C.3       1 UNK         0.0853 
      6 C6         16.1533  -26.7150  -45.0357 C.3       10 UNK        -0.0849 
      7 S7         14.9854  -27.9266  -44.3285 S.3       10 UNK        -0.2776 
      8 C8         15.4688  -29.4607  -45.1932 C.3       10 UNK         0.0316 
      9 C9         16.8761  -29.9284  -44.8377 C.ar      10 UNK        -0.0863 
     10 C10        17.1574  -30.3943  -43.5490 C.ar      10 UNK        -0.1009 
     11 C11        18.4411  -30.8400  -43.2205 C.ar      10 UNK        -0.0712 
     12 C12        19.4454  -30.8210  -44.1909 C.ar      10 UNK        -0.0894 
     13 C13        19.1804  -30.3604  -45.4834 C.ar      10 UNK        -0.0745 
     14 C14        17.8920  -29.9181  -45.8022 C.ar      10 UNK        -0.0972 
     15 C15        20.2837  -30.3699  -46.5357 C.3       10 UNK         0.0209 
     16 S16        20.9104  -28.7044  -46.9326 S.3       10 UNK        -0.2568 
     17 C17        21.6354  -28.1745  -45.3415 C.3       10 UNK        -0.0983 
     18 CA         21.8431  -26.6370  -45.2549 C.3       3 UNK         0.0876 
     19 N          20.6204  -25.8968  -45.5707 N.am      3 UNK        -0.4424 
     20 C          20.5669  -24.6953  -46.1614 C.2       2 UNK         0.4918 
     21 O          21.5734  -24.0578  -46.4751 O.2       2 UNK        -0.4875 
     22 CA         19.1795  -24.0955  -46.4683 C.3       2 UNK         0.0481 
     23 CB         18.9386  -24.0661  -47.9867 C.3       2 UNK        -0.1831 
     24 N          18.0875  -24.8366  -45.8337 N.am      2 UNK        -0.4498 
     25 C          17.6262  -24.6139  -44.5947 C.2       1 UNK         0.5027 
     26 O          17.9900  -23.6659  -43.8947 O.2       1 UNK        -0.4969 
     27 C          22.3262  -26.1842  -43.8634 C.2       3 UNK         0.5005 
     28 O          22.2070  -26.9309  -42.8904 O.2       3 UNK        -0.5279 
     29 N          22.8260  -24.9407  -43.7924 N.am      4 UNK        -0.4463 
     30 CA         23.1314  -24.1700  -42.5770 C.3       4 UNK         0.0283 
     31 CB         23.7288  -22.8143  -42.9883 C.3       4 UNK        -0.1875 
     32 C          24.0300  -24.8499  -41.5247 C.2       4 UNK         0.4949 
     33 O          23.9930  -24.4465  -40.3620 O.2       4 UNK        -0.5039 
     34 N          24.8034  -25.8661  -41.9293 N.am      5 UNK        -0.4663 
     35 CA         25.5780  -26.7288  -41.0345 C.3       5 UNK         0.0242 
     36 CB         26.5280  -27.6004  -41.8719 C.3       5 UNK        -0.1982 
     37 C          24.7055  -27.6163  -40.1253 C.2       5 UNK         0.5017 
     38 O          25.1719  -27.9941  -39.0506 O.2       5 UNK        -0.5012 
     39 N          23.4829  -27.9545  -40.5713 N.am      6 UNK        -0.4439 
     40 CA         22.4302  -28.7559  -39.9206 C.3       6 UNK         0.0297 
     41 CB         21.9159  -28.0549  -38.6499 C.3       6 UNK        -0.2006 
     42 C          22.7719  -30.2321  -39.6274 C.2       6 UNK         0.4892 
     43 O          21.8729  -31.0725  -39.6772 O.2       6 UNK        -0.5089 
     44 N          24.0489  -30.5314  -39.3562 N.am      7 UNK        -0.4243 
     45 CA         24.6127  -31.8350  -38.9837 C.3       7 UNK         0.0196 
     46 CB         26.1042  -31.6445  -38.6600 C.3       7 UNK        -0.2007 
     47 C          24.4251  -32.9682  -40.0111 C.2       7 UNK         0.5020 
     48 O          24.6821  -34.1254  -39.6778 O.2       7 UNK        -0.5147 
     49 N          23.9714  -32.6371  -41.2277 N.am      8 UNK        -0.4734 
     50 CA         23.5202  -33.5936  -42.2413 C.3       8 UNK         0.0238 
     51 CB         23.2600  -32.8469  -43.5594 C.3       8 UNK        -0.1912 
     52 C          22.2722  -34.3892  -41.8076 C.2       8 UNK         0.5038 
     53 O          22.1106  -35.5271  -42.2509 O.2       8 UNK        -0.5046 
     54 N          21.4364  -33.7957  -40.9441 N.am      9 UNK        -0.4200 
     55 CA         20.3238  -34.4693  -40.2649 C.3       9 UNK         0.0839 
     56 C          20.8029  -35.0254  -38.9007 C.2       9 UNK         0.5513 
     57 N          20.4705  -36.2693  -38.5846 N.am      9 UNK        -0.7519 
     58 O          21.4344  -34.3275  -38.1103 O.2       9 UNK        -0.4960 
     59 C59        19.1094  -33.5257  -40.0801 C.3       10 UNK        -0.0876 
     60 S60        18.3364  -33.1118  -41.6784 S.3       10 UNK        -0.2414 
     61 C61        18.7487  -31.3498  -41.8227 C.3       10 UNK         0.0169 
     62 H62        17.9732  -27.0953  -40.5012 H         1 UNK         0.0903 
     63 H63        18.8613  -28.4302  -41.2410 H         1 UNK         0.0903 
     64 H64        19.6564  -26.8764  -40.9979 H         1 UNK         0.0903 
     65 H65        16.6329  -25.9611  -41.9272 H         1 UNK         0.3096 
     66 H66        15.7379  -25.0512  -43.7317 H         1 UNK         0.1121 
     67 H67        15.6593  -26.2447  -45.8880 H         1 UNK         0.0849 
     68 H68        17.0120  -27.2545  -45.4356 H         1 UNK         0.0849 
     69 H69        14.7594  -30.2476  -44.9333 H         1 UNK         0.0865 
     70 H70        15.3699  -29.3088  -46.2692 H         1 UNK         0.0865 
     71 H71        16.3758  -30.4091  -42.8017 H         1 UNK         0.1346 
     72 H72        20.4363  -31.1679  -43.9379 H         1 UNK         0.1412 
     73 H73        17.6853  -29.5643  -46.8030 H         1 UNK         0.1426 
     74 H74        19.9001  -30.8255  -47.4496 H         1 UNK         0.0716 
     75 H75        21.1191  -30.9941  -46.2143 H         1 UNK         0.0716 
     76 H76        20.9868  -28.5167  -44.5354 H         1 UNK         0.0695 
     77 H77        22.5856  -28.6938  -45.2060 H         1 UNK         0.0695 
     78 H78        22.6191  -26.3747  -45.9775 H         1 UNK         0.0983 
     79 H79        19.7721  -26.3267  -45.2143 H         1 UNK         0.3095 
     80 H80        19.1798  -23.0651  -46.1072 H         1 UNK         0.0454 
     81 H81        19.7120  -23.4877  -48.4941 H         1 UNK         0.0851 
     82 H82        18.9472  -25.0681  -48.4177 H         1 UNK         0.0851 
     83 H83        17.9816  -23.6036  -48.2283 H         1 UNK         0.0851 
     84 H84        17.7452  -25.6419  -46.3372 H         1 UNK         0.2976 
     85 H85        22.8474  -24.4160  -44.6589 H         1 UNK         0.3116 
     86 H86        22.1747  -23.9805  -42.0863 H         1 UNK         0.0646 
     87 H87        23.9348  -22.1941  -42.1146 H         1 UNK         0.0847 
     88 H88        23.0442  -22.2528  -43.6244 H         1 UNK         0.0847 
     89 H89        24.6681  -22.9364  -43.5291 H         1 UNK         0.0847 
     90 H90        24.7681  -26.1277  -42.9037 H         1 UNK         0.3040 
     91 H91        26.1792  -26.0895  -40.3839 H         1 UNK         0.1015 
     92 H92        27.2101  -26.9892  -42.4633 H         1 UNK         0.0786 
     93 H93        25.9824  -28.2533  -42.5546 H         1 UNK         0.0786 
     94 H94        27.1401  -28.2374  -41.2314 H         1 UNK         0.0786 
     95 H95        23.1991  -27.5733  -41.4742 H         1 UNK         0.3172 
     96 H96        21.6067  -28.7747  -40.6367 H         1 UNK         0.0595 
     97 H97        21.5766  -27.0421  -38.8673 H         1 UNK         0.0839 
     98 H98        22.6854  -27.9932  -37.8798 H         1 UNK         0.0839 
     99 H99        21.0705  -28.5953  -38.2219 H         1 UNK         0.0839 
    100 H100       24.6811  -29.7372  -39.2918 H         1 UNK         0.2998 
    101 H101       24.1012  -32.1552  -38.0737 H         1 UNK         0.0822 
    102 H102       26.2472  -30.9188  -37.8588 H         1 UNK         0.0787 
    103 H103       26.5592  -32.5800  -38.3313 H         1 UNK         0.0787 
    104 H104       26.6622  -31.2973  -39.5306 H         1 UNK         0.0787 
    105 H105       23.7992  -31.6597  -41.4115 H         1 UNK         0.3055 
    106 H106       24.3231  -34.3160  -42.4052 H         1 UNK         0.1106 
    107 H107       22.5101  -32.0659  -43.4377 H         1 UNK         0.0828 
    108 H108       24.1703  -32.3815  -43.9378 H         1 UNK         0.0828 
    109 H109       22.9011  -33.5285  -44.3320 H         1 UNK         0.0828 
    110 H110       21.6734  -32.8770  -40.5835 H         1 UNK         0.2931 
    111 H111       19.9906  -35.3122  -40.8747 H         1 UNK         0.0412 
    112 H112       20.7598  -36.6432  -37.6938 H         1 UNK         0.3472 
    113 H113       19.9435  -36.8462  -39.2224 H         1 UNK         0.3472 
    114 H114       19.3989  -32.6172  -39.5478 H         1 UNK         0.0970 
    115 H115       18.3441  -34.0047  -39.4663 H         1 UNK         0.0970 
    116 H116       19.8051  -31.1998  -41.5934 H         1 UNK         0.0612 
    117 H117       18.1835  -30.7855  -41.0798 H         1 UNK         0.0612 
@<TRIPOS>BOND
     1    1    2 1    
     2    1   62 1    
     3    1   63 1    
     4    1   64 1    
     5    2    3 2    
     6    2    4 am   BACKBONE|DICT|INTERRES
     7    4    5 1    
     8    4   65 1    
     9    5    6 1    
    10    5   25 1    
    11    5   66 1    
    12    6    7 1    
    13    6   67 1    
    14    6   68 1    
    15    7    8 1    
    16    8    9 1    
    17    8   69 1    
    18    8   70 1    
    19    9   10 ar   
    20    9   14 ar   
    21   10   11 ar   
    22   10   71 1    
    23   11   12 ar   
    24   11   61 1    
    25   12   13 ar   
    26   12   72 1    
    27   13   14 ar   
    28   13   15 1    
    29   14   73 1    
    30   15   16 1    
    31   15   74 1    
    32   15   75 1    
    33   16   17 1    
    34   17   18 1    
    35   17   76 1    
    36   17   77 1    
    37   18   19 1    
    38   18   27 1    
    39   18   78 1    
    40   19   20 am   BACKBONE|DICT|INTERRES
    41   19   79 1    
    42   20   21 2    
    43   20   22 1    
    44   22   23 1    
    45   22   24 1    
    46   22   80 1    
    47   23   81 1    
    48   23   82 1    
    49   23   83 1    
    50   24   25 am   BACKBONE|DICT|INTERRES
    51   24   84 1    
    52   25   26 2    
    53   27   28 2    
    54   27   29 am   BACKBONE|DICT|INTERRES
    55   29   30 1    
    56   29   85 1    
    57   30   31 1    
    58   30   32 1    
    59   30   86 1    
    60   31   87 1    
    61   31   88 1    
    62   31   89 1    
    63   32   33 2    
    64   32   34 am   BACKBONE|DICT|INTERRES
    65   34   35 1    
    66   34   90 1    
    67   35   36 1    
    68   35   37 1    
    69   35   91 1    
    70   36   92 1    
    71   36   93 1    
    72   36   94 1    
    73   37   38 2    
    74   37   39 am   BACKBONE|DICT|INTERRES
    75   39   40 1    
    76   39   95 1    
    77   40   41 1    
    78   40   42 1    
    79   40   96 1    
    80   41   97 1    
    81   41   98 1    
    82   41   99 1    
    83   42   43 2    
    84   42   44 am   BACKBONE|DICT|INTERRES
    85   44   45 1    
    86   44  100 1    
    87   45   46 1    
    88   45   47 1    
    89   45  101 1    
    90   46  102 1    
    91   46  103 1    
    92   46  104 1    
    93   47   48 2    
    94   47   49 am   BACKBONE|DICT|INTERRES
    95   49   50 1    
    96   49  105 1    
    97   50   51 1    
    98   50   52 1    
    99   50  106 1    
   100   51  107 1    
   101   51  108 1    
   102   51  109 1    
   103   52   53 2    
   104   52   54 am   BACKBONE|DICT|INTERRES
   105   54   55 1    
   106   54  110 1    
   107   55   56 1    
   108   55   59 1    
   109   55  111 1    
   110   56   57 am   BACKBONE|DICT|INTERRES
   111   56   58 2    
   112   57  112 1    
   113   57  113 1    
   114   59   60 1    
   115   59  114 1    
   116   59  115 1    
   117   60   61 1    
   118   61  116 1    
   119   61  117 1    
@<TRIPOS>SUBSTRUCTURE
     1 UNK         1 GROUP             0       ****    0 ROOT    
