@<TRIPOS>MOLECULE
3R8
117   119    1
SMALL
USER_CHARGES


@<TRIPOS>ATOM
      1 CA         18.4953  -22.2203  -46.4982 C.3       0 UNK        -0.2013 
      2 C          17.1150  -22.7456  -46.1117 C.2       0 UNK         0.4866 
      3 O          16.1709  -21.9622  -46.0367 O.2       0 UNK        -0.5176 
      4 N          16.9376  -24.0512  -45.8578 N.am      1 UNK        -0.4884 
      5 CA         17.9630  -25.1069  -45.8729 C.3       1 UNK         0.0853 
      6 C6         17.3182  -26.5041  -46.0771 C.3       10 UNK        -0.0849 
      7 S7         18.3650  -27.6046  -47.0843 S.3       10 UNK        -0.2776 
      8 C8         17.5736  -29.2158  -46.7891 C.3       10 UNK         0.0316 
      9 C9         18.1259  -29.9028  -45.5485 C.ar      10 UNK        -0.0863 
     10 C10        19.3429  -30.5886  -45.6226 C.ar      10 UNK        -0.1009 
     11 C11        19.8394  -31.2723  -44.5107 C.ar      10 UNK        -0.0712 
     12 C12        19.1087  -31.2677  -43.3215 C.ar      10 UNK        -0.0894 
     13 C13        17.8967  -30.5786  -43.2261 C.ar      10 UNK        -0.0745 
     14 C14        17.4105  -29.8929  -44.3450 C.ar      10 UNK        -0.0972 
     15 C15        17.0962  -30.6195  -41.9287 C.3       10 UNK         0.0209 
     16 S16        18.0895  -30.1686  -40.4653 S.3       10 UNK        -0.2568 
     17 C17        18.2524  -28.3660  -40.6710 C.3       10 UNK        -0.0983 
     18 CA         19.5522  -27.9429  -41.4058 C.3       3 UNK         0.0876 
     19 N          19.4614  -26.5992  -41.9873 N.am      3 UNK        -0.4424 
     20 C          19.1941  -25.4424  -41.3685 C.2       2 UNK         0.4918 
     21 O          19.0574  -25.3376  -40.1492 O.2       2 UNK        -0.4875 
     22 CA         19.0407  -24.1828  -42.2424 C.3       2 UNK         0.0481 
     23 CB         20.3836  -23.4432  -42.3851 C.3       2 UNK        -0.1831 
     24 N          18.4057  -24.3996  -43.5526 N.am      2 UNK        -0.4498 
     25 C          18.8600  -25.0851  -44.6145 C.2       1 UNK         0.5027 
     26 O          19.9305  -25.6928  -44.6214 O.2       1 UNK        -0.4969 
     27 C          20.8230  -28.1385  -40.5537 C.2       3 UNK         0.5005 
     28 O          21.6245  -29.0238  -40.8558 O.2       3 UNK        -0.5279 
     29 N          21.0192  -27.2836  -39.5410 N.am      4 UNK        -0.4463 
     30 CA         22.1933  -27.2694  -38.6647 C.3       4 UNK         0.0283 
     31 CB         21.9562  -26.3012  -37.4953 C.3       4 UNK        -0.1875 
     32 C          23.4833  -26.9109  -39.4186 C.2       4 UNK         0.4949 
     33 O          24.5002  -27.5778  -39.2331 O.2       4 UNK        -0.5039 
     34 N          23.4049  -25.9066  -40.3047 N.am      5 UNK        -0.4663 
     35 CA         24.5056  -25.4972  -41.1874 C.3       5 UNK         0.0242 
     36 CB         24.1930  -24.1211  -41.7950 C.3       5 UNK        -0.1982 
     37 C          24.8042  -26.5233  -42.2970 C.2       5 UNK         0.5017 
     38 O          25.9219  -26.5478  -42.8115 O.2       5 UNK        -0.5012 
     39 N          23.8129  -27.3660  -42.6191 N.am      6 UNK        -0.4439 
     40 CA         23.9297  -28.5115  -43.5239 C.3       6 UNK         0.0297 
     41 CB         22.5760  -28.7315  -44.2216 C.3       6 UNK        -0.2006 
     42 C          24.4054  -29.7905  -42.8004 C.2       6 UNK         0.4892 
     43 O          24.4981  -30.8369  -43.4429 O.2       6 UNK        -0.5089 
     44 N          24.6961  -29.6879  -41.4920 N.am      7 UNK        -0.4243 
     45 CA         25.1853  -30.7330  -40.5875 C.3       7 UNK         0.0196 
     46 CB         26.5883  -31.2166  -41.0139 C.3       7 UNK        -0.2007 
     47 C          24.1897  -31.8888  -40.3775 C.2       7 UNK         0.5020 
     48 O          24.6170  -33.0252  -40.1692 O.2       7 UNK        -0.5147 
     49 N          22.8824  -31.5924  -40.4418 N.am      8 UNK        -0.4734 
     50 CA         21.7210  -32.4763  -40.2387 C.3       8 UNK         0.0238 
     51 CB         21.6938  -33.0315  -38.8015 C.3       8 UNK        -0.1912 
     52 C          21.5381  -33.6101  -41.2700 C.2       8 UNK         0.5038 
     53 O          20.3981  -34.0208  -41.4823 O.2       8 UNK        -0.5046 
     54 N          22.6342  -34.0770  -41.8828 N.am      9 UNK        -0.4200 
     55 CA         22.7503  -35.0604  -42.9758 C.3       9 UNK         0.0839 
     56 C          22.0430  -36.4374  -42.7799 C.2       9 UNK         0.5513 
     57 N          21.7078  -36.8385  -41.5601 N.am      9 UNK        -0.7519 
     58 O          21.8419  -37.1809  -43.7373 O.2       9 UNK        -0.4960 
     59 C59        22.5732  -34.4295  -44.3898 C.3       10 UNK        -0.0876 
     60 S60        20.9002  -33.8077  -44.7735 S.3       10 UNK        -0.2414 
     61 C61        21.1611  -32.0187  -44.5816 C.3       10 UNK         0.0169 
     62 H62        19.2233  -22.3998  -45.7081 H         1 UNK         0.0903 
     63 H63        18.8471  -22.6863  -47.4180 H         1 UNK         0.0903 
     64 H64        18.4576  -21.1447  -46.6700 H         1 UNK         0.0903 
     65 H65        16.0055  -24.3615  -45.6195 H         1 UNK         0.3096 
     66 H66        18.6195  -24.9113  -46.7229 H         1 UNK         0.1121 
     67 H67        17.0736  -26.9831  -45.1266 H         1 UNK         0.0849 
     68 H68        16.3712  -26.4121  -46.6123 H         1 UNK         0.0849 
     69 H69        16.4913  -29.0943  -46.7197 H         1 UNK         0.0865 
     70 H70        17.7466  -29.8528  -47.6580 H         1 UNK         0.0865 
     71 H71        19.8984  -30.5969  -46.5507 H         1 UNK         0.1346 
     72 H72        19.4815  -31.8095  -42.4653 H         1 UNK         0.1412 
     73 H73        16.4646  -29.3718  -44.2870 H         1 UNK         0.1426 
     74 H74        16.2192  -29.9730  -41.9851 H         1 UNK         0.0716 
     75 H75        16.7196  -31.6338  -41.7907 H         1 UNK         0.0716 
     76 H76        18.1879  -27.9002  -39.6862 H         1 UNK         0.0695 
     77 H77        17.3812  -28.0072  -41.2212 H         1 UNK         0.0695 
     78 H78        19.6673  -28.5981  -42.2700 H         1 UNK         0.0983 
     79 H79        19.6289  -26.5412  -42.9891 H         1 UNK         0.3095 
     80 H80        18.3641  -23.5199  -41.7007 H         1 UNK         0.0454 
     81 H81        20.2546  -22.4844  -42.8870 H         1 UNK         0.0851 
     82 H82        21.1065  -24.0229  -42.9572 H         1 UNK         0.0851 
     83 H83        20.8261  -23.2394  -41.4091 H         1 UNK         0.0851 
     84 H84        17.4955  -23.9714  -43.6558 H         1 UNK         0.2976 
     85 H85        20.3192  -26.5584  -39.4047 H         1 UNK         0.3116 
     86 H86        22.3163  -28.2749  -38.2561 H         1 UNK         0.0646 
     87 H87        21.0920  -26.6010  -36.9024 H         1 UNK         0.0847 
     88 H88        22.8163  -26.2822  -36.8244 H         1 UNK         0.0847 
     89 H89        21.7880  -25.2799  -37.8394 H         1 UNK         0.0847 
     90 H90        22.5340  -25.4030  -40.3884 H         1 UNK         0.3040 
     91 H91        25.4089  -25.4040  -40.5797 H         1 UNK         0.1015 
     92 H92        23.3440  -24.1638  -42.4755 H         1 UNK         0.0786 
     93 H93        25.0443  -23.7492  -42.3671 H         1 UNK         0.0786 
     94 H94        23.9754  -23.3817  -41.0240 H         1 UNK         0.0786 
     95 H95        22.9428  -27.2868  -42.1133 H         1 UNK         0.3172 
     96 H96        24.6689  -28.2816  -44.2939 H         1 UNK         0.0595 
     97 H97        21.8160  -29.0984  -43.5321 H         1 UNK         0.0839 
     98 H98        22.6709  -29.4660  -45.0211 H         1 UNK         0.0839 
     99 H99        22.2022  -27.8132  -44.6756 H         1 UNK         0.0839 
    100 H100       24.5539  -28.7881  -41.0496 H         1 UNK         0.2998 
    101 H101       25.2891  -30.2558  -39.6119 H         1 UNK         0.0822 
    102 H102       27.0202  -31.8783  -40.2620 H         1 UNK         0.0787 
    103 H103       26.5580  -31.7696  -41.9533 H         1 UNK         0.0787 
    104 H104       27.2752  -30.3796  -41.1386 H         1 UNK         0.0787 
    105 H105       22.6319  -30.6269  -40.6520 H         1 UNK         0.3055 
    106 H106       20.8499  -31.8282  -40.3516 H         1 UNK         0.1106 
    107 H107       20.7788  -33.5973  -38.6208 H         1 UNK         0.0828 
    108 H108       22.5318  -33.7009  -38.6056 H         1 UNK         0.0828 
    109 H109       21.7262  -32.2275  -38.0663 H         1 UNK         0.0828 
    110 H110       23.5162  -33.7171  -41.5309 H         1 UNK         0.2931 
    111 H111       23.8038  -35.3389  -42.9298 H         1 UNK         0.0412 
    112 H112       21.2660  -37.7361  -41.4374 H         1 UNK         0.3472 
    113 H113       21.8575  -36.2343  -40.7681 H         1 UNK         0.3472 
    114 H114       22.8420  -35.1557  -45.1588 H         1 UNK         0.0970 
    115 H115       23.2910  -33.6164  -44.5118 H         1 UNK         0.0970 
    116 H116       21.7655  -31.6582  -45.4149 H         1 UNK         0.0612 
    117 H117       21.7349  -31.8217  -43.6747 H         1 UNK         0.0612 
@<TRIPOS>BOND
     1    1    2 1    
     2    1   62 1    
     3    1   63 1    
     4    1   64 1    
     5    2    3 2    
     6    2    4 am   BACKBONE|DICT|INTERRES
     7    4    5 1    
     8    4   65 1    
     9    5    6 1    
    10    5   25 1    
    11    5   66 1    
    12    6    7 1    
    13    6   67 1    
    14    6   68 1    
    15    7    8 1    
    16    8    9 1    
    17    8   69 1    
    18    8   70 1    
    19    9   10 ar   
    20    9   14 ar   
    21   10   11 ar   
    22   10   71 1    
    23   11   12 ar   
    24   11   61 1    
    25   12   13 ar   
    26   12   72 1    
    27   13   14 ar   
    28   13   15 1    
    29   14   73 1    
    30   15   16 1    
    31   15   74 1    
    32   15   75 1    
    33   16   17 1    
    34   17   18 1    
    35   17   76 1    
    36   17   77 1    
    37   18   19 1    
    38   18   27 1    
    39   18   78 1    
    40   19   20 am   BACKBONE|DICT|INTERRES
    41   19   79 1    
    42   20   21 2    
    43   20   22 1    
    44   22   23 1    
    45   22   24 1    
    46   22   80 1    
    47   23   81 1    
    48   23   82 1    
    49   23   83 1    
    50   24   25 am   BACKBONE|DICT|INTERRES
    51   24   84 1    
    52   25   26 2    
    53   27   28 2    
    54   27   29 am   BACKBONE|DICT|INTERRES
    55   29   30 1    
    56   29   85 1    
    57   30   31 1    
    58   30   32 1    
    59   30   86 1    
    60   31   87 1    
    61   31   88 1    
    62   31   89 1    
    63   32   33 2    
    64   32   34 am   BACKBONE|DICT|INTERRES
    65   34   35 1    
    66   34   90 1    
    67   35   36 1    
    68   35   37 1    
    69   35   91 1    
    70   36   92 1    
    71   36   93 1    
    72   36   94 1    
    73   37   38 2    
    74   37   39 am   BACKBONE|DICT|INTERRES
    75   39   40 1    
    76   39   95 1    
    77   40   41 1    
    78   40   42 1    
    79   40   96 1    
    80   41   97 1    
    81   41   98 1    
    82   41   99 1    
    83   42   43 2    
    84   42   44 am   BACKBONE|DICT|INTERRES
    85   44   45 1    
    86   44  100 1    
    87   45   46 1    
    88   45   47 1    
    89   45  101 1    
    90   46  102 1    
    91   46  103 1    
    92   46  104 1    
    93   47   48 2    
    94   47   49 am   BACKBONE|DICT|INTERRES
    95   49   50 1    
    96   49  105 1    
    97   50   51 1    
    98   50   52 1    
    99   50  106 1    
   100   51  107 1    
   101   51  108 1    
   102   51  109 1    
   103   52   53 2    
   104   52   54 am   BACKBONE|DICT|INTERRES
   105   54   55 1    
   106   54  110 1    
   107   55   56 1    
   108   55   59 1    
   109   55  111 1    
   110   56   57 am   BACKBONE|DICT|INTERRES
   111   56   58 2    
   112   57  112 1    
   113   57  113 1    
   114   59   60 1    
   115   59  114 1    
   116   59  115 1    
   117   60   61 1    
   118   61  116 1    
   119   61  117 1    
@<TRIPOS>SUBSTRUCTURE
     1 UNK         1 GROUP             0       ****    0 ROOT    
