@<TRIPOS>MOLECULE
3R8
117   119    1
SMALL
USER_CHARGES


@<TRIPOS>ATOM
      1 CA         15.0683  -21.8409  -47.5359 C.3       0 UNK        -0.2013 
      2 C          16.3090  -22.5922  -47.0762 C.2       0 UNK         0.4866 
      3 O          17.4214  -22.0829  -47.2189 O.2       0 UNK        -0.5176 
      4 N          16.1292  -23.8031  -46.5349 N.am      1 UNK        -0.4884 
      5 CA         17.2021  -24.6441  -45.9960 C.3       1 UNK         0.0853 
      6 C6         16.7103  -26.0807  -45.6950 C.3       10 UNK        -0.0849 
      7 S7         16.3342  -27.0505  -47.1903 S.3       10 UNK        -0.2776 
      8 C8         17.7366  -28.2295  -47.2169 C.3       10 UNK         0.0316 
      9 C9         17.8484  -29.1958  -46.0295 C.ar      10 UNK        -0.0863 
     10 C10        19.0001  -29.9847  -45.9279 C.ar      10 UNK        -0.1009 
     11 C11        19.1573  -30.8971  -44.8801 C.ar      10 UNK        -0.0712 
     12 C12        18.1597  -31.0081  -43.9094 C.ar      10 UNK        -0.0894 
     13 C13        17.0113  -30.2156  -43.9817 C.ar      10 UNK        -0.0745 
     14 C14        16.8519  -29.3304  -45.0515 C.ar      10 UNK        -0.0972 
     15 C15        15.9419  -30.3151  -42.9033 C.3       10 UNK         0.0209 
     16 S16        16.5502  -29.7456  -41.2829 S.3       10 UNK        -0.2568 
     17 C17        16.9194  -27.9810  -41.5909 C.3       10 UNK        -0.0983 
     18 CA         18.4137  -27.6959  -41.8937 C.3       3 UNK         0.0876 
     19 N          18.6228  -26.2947  -42.2710 N.am      3 UNK        -0.4424 
     20 C          19.7840  -25.7712  -42.6891 C.2       2 UNK         0.4918 
     21 O          20.8298  -26.4152  -42.7900 O.2       2 UNK        -0.4875 
     22 CA         19.7262  -24.3119  -43.1700 C.3       2 UNK         0.0481 
     23 CB         21.1170  -23.6657  -43.3029 C.3       2 UNK        -0.1831 
     24 N          19.0799  -24.3367  -44.4788 N.am      2 UNK        -0.4498 
     25 C          17.7886  -24.0628  -44.6960 C.2       1 UNK         0.5027 
     26 O          17.0516  -23.5052  -43.8784 O.2       1 UNK        -0.4969 
     27 C          19.3450  -28.1028  -40.7323 C.2       3 UNK         0.5005 
     28 O          19.3750  -27.4163  -39.7082 O.2       3 UNK        -0.5279 
     29 N          20.1010  -29.1905  -40.9434 N.am      4 UNK        -0.4463 
     30 CA         21.0960  -29.7915  -40.0465 C.3       4 UNK         0.0283 
     31 CB         20.4622  -30.2090  -38.7030 C.3       4 UNK        -0.1875 
     32 C          22.3808  -28.9632  -39.8407 C.2       4 UNK         0.4949 
     33 O          23.2806  -29.4422  -39.1497 O.2       4 UNK        -0.5039 
     34 N          22.4929  -27.7749  -40.4546 N.am      5 UNK        -0.4663 
     35 CA         23.6731  -26.9086  -40.3438 C.3       5 UNK         0.0242 
     36 CB         23.3378  -25.5005  -40.8556 C.3       5 UNK        -0.1982 
     37 C          24.8963  -27.4705  -41.0849 C.2       5 UNK         0.5017 
     38 O          26.0268  -27.2199  -40.6652 O.2       5 UNK        -0.5012 
     39 N          24.6547  -28.2530  -42.1458 N.am      6 UNK        -0.4439 
     40 CA         25.6649  -28.9652  -42.9307 C.3       6 UNK         0.0297 
     41 CB         25.0963  -29.2512  -44.3332 C.3       6 UNK        -0.2006 
     42 C          26.1569  -30.2382  -42.2109 C.2       6 UNK         0.4892 
     43 O          26.0478  -31.3356  -42.7585 O.2       6 UNK        -0.5089 
     44 N          26.6819  -30.0563  -40.9905 N.am      7 UNK        -0.4243 
     45 CA         27.2575  -31.0678  -40.0967 C.3       7 UNK         0.0196 
     46 CB         28.5940  -31.5881  -40.6688 C.3       7 UNK        -0.2007 
     47 C          26.2737  -32.2007  -39.7405 C.2       7 UNK         0.5020 
     48 O          26.6257  -33.3759  -39.8575 O.2       7 UNK        -0.5147 
     49 N          25.0621  -31.8212  -39.3030 N.am      8 UNK        -0.4734 
     50 CA         23.9589  -32.7016  -38.8922 C.3       8 UNK         0.0238 
     51 CB         24.3254  -33.4948  -37.6185 C.3       8 UNK        -0.1912 
     52 C          23.4585  -33.5949  -40.0426 C.2       8 UNK         0.5038 
     53 O          23.3712  -34.8145  -39.8872 O.2       8 UNK        -0.5046 
     54 N          23.1512  -32.9610  -41.1826 N.am      9 UNK        -0.4200 
     55 CA         22.6764  -33.6145  -42.4128 C.3       9 UNK         0.0839 
     56 C          21.3001  -34.3405  -42.3197 C.2       9 UNK         0.5513 
     57 N          20.4813  -34.0931  -41.3040 N.am      9 UNK        -0.7519 
     58 O          20.9755  -35.1468  -43.1874 O.2       9 UNK        -0.4960 
     59 C59        22.7512  -32.6559  -43.6315 C.3       10 UNK        -0.0876 
     60 S60        21.5815  -31.2489  -43.5642 S.3       10 UNK        -0.2414 
     61 C61        20.3802  -31.7975  -44.8171 C.3       10 UNK         0.0169 
     62 H62        14.1570  -22.4129  -47.3620 H         1 UNK         0.0903 
     63 H63        14.9826  -20.8958  -47.0004 H         1 UNK         0.0903 
     64 H64        15.1340  -21.6243  -48.6018 H         1 UNK         0.0903 
     65 H65        15.1939  -24.1714  -46.4358 H         1 UNK         0.3096 
     66 H66        17.9992  -24.6898  -46.7420 H         1 UNK         0.1121 
     67 H67        15.8159  -26.0566  -45.0690 H         1 UNK         0.0849 
     68 H68        17.4565  -26.6259  -45.1139 H         1 UNK         0.0849 
     69 H69        17.6620  -28.8198  -48.1313 H         1 UNK         0.0865 
     70 H70        18.6617  -27.6567  -47.2991 H         1 UNK         0.0865 
     71 H71        19.7734  -29.9003  -46.6797 H         1 UNK         0.1346 
     72 H72        18.2792  -31.7089  -43.0937 H         1 UNK         0.1412 
     73 H73        15.9470  -28.7432  -45.1066 H         1 UNK         0.1426 
     74 H74        15.6212  -31.3540  -42.8144 H         1 UNK         0.0716 
     75 H75        15.0536  -29.7422  -43.1740 H         1 UNK         0.0716 
     76 H76        16.5960  -27.4115  -40.7175 H         1 UNK         0.0695 
     77 H77        16.2981  -27.6357  -42.4188 H         1 UNK         0.0695 
     78 H78        18.6917  -28.2826  -42.7717 H         1 UNK         0.0983 
     79 H79        17.8181  -25.6883  -42.2052 H         1 UNK         0.3095 
     80 H80        19.1466  -23.7295  -42.4508 H         1 UNK         0.0454 
     81 H81        21.7712  -24.2282  -43.9703 H         1 UNK         0.0851 
     82 H82        21.6092  -23.6047  -42.3325 H         1 UNK         0.0851 
     83 H83        21.0432  -22.6492  -43.6892 H         1 UNK         0.0851 
     84 H84        19.5973  -24.8164  -45.2027 H         1 UNK         0.2976 
     85 H85        20.0104  -29.6548  -41.8379 H         1 UNK         0.3116 
     86 H86        21.4151  -30.7063  -40.5453 H         1 UNK         0.0646 
     87 H87        20.1608  -29.3461  -38.1090 H         1 UNK         0.0847 
     88 H88        21.1624  -30.7818  -38.0951 H         1 UNK         0.0847 
     89 H89        19.5823  -30.8337  -38.8566 H         1 UNK         0.0847 
     90 H90        21.7293  -27.4401  -41.0306 H         1 UNK         0.3040 
     91 H91        23.9365  -26.8321  -39.2863 H         1 UNK         0.1015 
     92 H92        23.1591  -25.4973  -41.9310 H         1 UNK         0.0786 
     93 H93        24.1616  -24.8117  -40.6638 H         1 UNK         0.0786 
     94 H94        22.4539  -25.0958  -40.3622 H         1 UNK         0.0786 
     95 H95        23.6895  -28.4139  -42.3957 H         1 UNK         0.3172 
     96 H96        26.5328  -28.3144  -43.0563 H         1 UNK         0.0595 
     97 H97        25.8310  -29.7620  -44.9571 H         1 UNK         0.0839 
     98 H98        24.8247  -28.3287  -44.8466 H         1 UNK         0.0839 
     99 H99        24.2094  -29.8830  -44.2908 H         1 UNK         0.0839 
    100 H100       26.6840  -29.1026  -40.6400 H         1 UNK         0.2998 
    101 H101       27.4807  -30.5568  -39.1588 H         1 UNK         0.0822 
    102 H102       29.0848  -32.2624  -39.9658 H         1 UNK         0.0787 
    103 H103       28.4490  -32.1378  -41.5996 H         1 UNK         0.0787 
    104 H104       29.2862  -30.7698  -40.8672 H         1 UNK         0.0787 
    105 H105       24.8475  -30.8293  -39.2637 H         1 UNK         0.3055 
    106 H106       23.1236  -32.0524  -38.6307 H         1 UNK         0.1106 
    107 H107       23.4678  -34.0606  -37.2525 H         1 UNK         0.0828 
    108 H108       25.1297  -34.2088  -37.7978 H         1 UNK         0.0828 
    109 H109       24.6401  -32.8299  -36.8143 H         1 UNK         0.0828 
    110 H110       23.2872  -31.9637  -41.2375 H         1 UNK         0.2931 
    111 H111       23.3984  -34.4093  -42.6106 H         1 UNK         0.0412 
    112 H112       19.5982  -34.5758  -41.2548 H         1 UNK         0.3472 
    113 H113       20.7411  -33.4409  -40.5835 H         1 UNK         0.3472 
    114 H114       22.5988  -33.2172  -44.5552 H         1 UNK         0.0970 
    115 H115       23.7604  -32.2527  -43.7159 H         1 UNK         0.0970 
    116 H116       20.8740  -31.8388  -45.7893 H         1 UNK         0.0612 
    117 H117       20.0583  -32.8154  -44.5935 H         1 UNK         0.0612 
@<TRIPOS>BOND
     1    1    2 1    
     2    1   62 1    
     3    1   63 1    
     4    1   64 1    
     5    2    3 2    
     6    2    4 am   BACKBONE|DICT|INTERRES
     7    4    5 1    
     8    4   65 1    
     9    5    6 1    
    10    5   25 1    
    11    5   66 1    
    12    6    7 1    
    13    6   67 1    
    14    6   68 1    
    15    7    8 1    
    16    8    9 1    
    17    8   69 1    
    18    8   70 1    
    19    9   10 ar   
    20    9   14 ar   
    21   10   11 ar   
    22   10   71 1    
    23   11   12 ar   
    24   11   61 1    
    25   12   13 ar   
    26   12   72 1    
    27   13   14 ar   
    28   13   15 1    
    29   14   73 1    
    30   15   16 1    
    31   15   74 1    
    32   15   75 1    
    33   16   17 1    
    34   17   18 1    
    35   17   76 1    
    36   17   77 1    
    37   18   19 1    
    38   18   27 1    
    39   18   78 1    
    40   19   20 am   BACKBONE|DICT|INTERRES
    41   19   79 1    
    42   20   21 2    
    43   20   22 1    
    44   22   23 1    
    45   22   24 1    
    46   22   80 1    
    47   23   81 1    
    48   23   82 1    
    49   23   83 1    
    50   24   25 am   BACKBONE|DICT|INTERRES
    51   24   84 1    
    52   25   26 2    
    53   27   28 2    
    54   27   29 am   BACKBONE|DICT|INTERRES
    55   29   30 1    
    56   29   85 1    
    57   30   31 1    
    58   30   32 1    
    59   30   86 1    
    60   31   87 1    
    61   31   88 1    
    62   31   89 1    
    63   32   33 2    
    64   32   34 am   BACKBONE|DICT|INTERRES
    65   34   35 1    
    66   34   90 1    
    67   35   36 1    
    68   35   37 1    
    69   35   91 1    
    70   36   92 1    
    71   36   93 1    
    72   36   94 1    
    73   37   38 2    
    74   37   39 am   BACKBONE|DICT|INTERRES
    75   39   40 1    
    76   39   95 1    
    77   40   41 1    
    78   40   42 1    
    79   40   96 1    
    80   41   97 1    
    81   41   98 1    
    82   41   99 1    
    83   42   43 2    
    84   42   44 am   BACKBONE|DICT|INTERRES
    85   44   45 1    
    86   44  100 1    
    87   45   46 1    
    88   45   47 1    
    89   45  101 1    
    90   46  102 1    
    91   46  103 1    
    92   46  104 1    
    93   47   48 2    
    94   47   49 am   BACKBONE|DICT|INTERRES
    95   49   50 1    
    96   49  105 1    
    97   50   51 1    
    98   50   52 1    
    99   50  106 1    
   100   51  107 1    
   101   51  108 1    
   102   51  109 1    
   103   52   53 2    
   104   52   54 am   BACKBONE|DICT|INTERRES
   105   54   55 1    
   106   54  110 1    
   107   55   56 1    
   108   55   59 1    
   109   55  111 1    
   110   56   57 am   BACKBONE|DICT|INTERRES
   111   56   58 2    
   112   57  112 1    
   113   57  113 1    
   114   59   60 1    
   115   59  114 1    
   116   59  115 1    
   117   60   61 1    
   118   61  116 1    
   119   61  117 1    
@<TRIPOS>SUBSTRUCTURE
     1 UNK         1 GROUP             0       ****    0 ROOT    
