@<TRIPOS>MOLECULE
3R8
117   119    1
SMALL
USER_CHARGES


@<TRIPOS>ATOM
      1 CA         18.3156  -22.1640  -47.1423 C.3       0 UNK        -0.2013 
      2 C          18.6747  -23.5340  -47.6974 C.2       0 UNK         0.4866 
      3 O          19.5815  -23.6429  -48.5227 O.2       0 UNK        -0.5176 
      4 N          17.9749  -24.5834  -47.2472 N.am      1 UNK        -0.4884 
      5 CA         18.1780  -25.9758  -47.6736 C.3       1 UNK         0.0853 
      6 C6         16.8672  -26.7964  -47.5463 C.3       10 UNK        -0.0849 
      7 S7         16.2765  -26.9918  -45.8264 S.3       10 UNK        -0.2776 
      8 C8         16.6077  -28.7711  -45.5602 C.3       10 UNK         0.0316 
      9 C9         16.6425  -29.2330  -44.1021 C.ar      10 UNK        -0.0863 
     10 C10        17.1773  -30.4962  -43.8263 C.ar      10 UNK        -0.1009 
     11 C11        17.2801  -30.9621  -42.5128 C.ar      10 UNK        -0.0712 
     12 C12        16.8208  -30.1645  -41.4630 C.ar      10 UNK        -0.0894 
     13 C13        16.3159  -28.8863  -41.7172 C.ar      10 UNK        -0.0745 
     14 C14        16.2032  -28.4363  -43.0358 C.ar      10 UNK        -0.0972 
     15 C15        15.9922  -27.9533  -40.5618 C.3       10 UNK         0.0209 
     16 S16        17.4992  -27.5168  -39.6289 S.3       10 UNK        -0.2568 
     17 C17        18.5398  -26.6741  -40.8806 C.3       10 UNK        -0.0983 
     18 CA         19.4734  -27.5950  -41.7231 C.3       3 UNK         0.0876 
     19 N          19.9852  -26.8658  -42.8866 N.am      3 UNK        -0.4424 
     20 C          20.4305  -27.4261  -44.0181 C.2       2 UNK         0.4918 
     21 O          20.3790  -28.6317  -44.2620 O.2       2 UNK        -0.4875 
     22 CA         21.0129  -26.4455  -45.0502 C.3       2 UNK         0.0481 
     23 CB         22.2547  -27.0041  -45.7765 C.3       2 UNK        -0.1831 
     24 N          19.9743  -25.9894  -45.9800 N.am      2 UNK        -0.4498 
     25 C          19.3710  -26.6688  -46.9701 C.2       1 UNK         0.5027 
     26 O          19.6997  -27.7963  -47.3408 O.2       1 UNK        -0.4969 
     27 C          20.6257  -28.2337  -40.9119 C.2       3 UNK         0.5005 
     28 O          21.8037  -28.0096  -41.2061 O.2       3 UNK        -0.5279 
     29 N          20.2639  -29.0116  -39.8829 N.am      4 UNK        -0.4463 
     30 CA         21.1471  -29.8007  -39.0160 C.3       4 UNK         0.0283 
     31 CB         20.2947  -30.5541  -37.9834 C.3       4 UNK        -0.1875 
     32 C          22.2630  -29.0058  -38.3161 C.2       4 UNK         0.4949 
     33 O          23.2931  -29.5916  -37.9873 O.2       4 UNK        -0.5039 
     34 N          22.0797  -27.6876  -38.1572 N.am      5 UNK        -0.4663 
     35 CA         23.1047  -26.7449  -37.6971 C.3       5 UNK         0.0242 
     36 CB         22.4659  -25.3588  -37.5149 C.3       5 UNK        -0.1982 
     37 C          24.3300  -26.6550  -38.6305 C.2       5 UNK         0.5017 
     38 O          25.4234  -26.3541  -38.1512 O.2       5 UNK        -0.5012 
     39 N          24.1378  -26.9373  -39.9282 N.am      6 UNK        -0.4439 
     40 CA         25.2016  -27.0373  -40.9312 C.3       6 UNK         0.0297 
     41 CB         24.6558  -26.5464  -42.2844 C.3       6 UNK        -0.2006 
     42 C          25.7567  -28.4697  -41.0642 C.2       6 UNK         0.4892 
     43 O          26.7124  -28.6640  -41.8158 O.2       6 UNK        -0.5089 
     44 N          25.1461  -29.4420  -40.3648 N.am      7 UNK        -0.4243 
     45 CA         25.4420  -30.8823  -40.3724 C.3       7 UNK         0.0196 
     46 CB         26.8309  -31.1577  -39.7580 C.3       7 UNK        -0.2007 
     47 C          25.2554  -31.5535  -41.7499 C.2       7 UNK         0.5020 
     48 O          25.8923  -32.5708  -42.0270 O.2       7 UNK        -0.5147 
     49 N          24.3872  -30.9786  -42.5931 N.am      8 UNK        -0.4734 
     50 CA         24.1414  -31.4322  -43.9655 C.3       8 UNK         0.0238 
     51 CB         23.6549  -30.2348  -44.7965 C.3       8 UNK        -0.1912 
     52 C          23.1426  -32.5993  -44.0654 C.2       8 UNK         0.5038 
     53 O          23.1045  -33.2614  -45.1036 O.2       8 UNK        -0.5046 
     54 N          22.3417  -32.8138  -43.0141 N.am      9 UNK        -0.4200 
     55 CA         21.3032  -33.8524  -42.9314 C.3       9 UNK         0.0839 
     56 C          21.8879  -35.2903  -42.9511 C.2       9 UNK         0.5513 
     57 N          21.2143  -36.2251  -43.6072 N.am      9 UNK        -0.7519 
     58 O          22.9154  -35.5733  -42.3386 O.2       9 UNK        -0.4960 
     59 C59        20.3918  -33.6541  -41.6920 C.3       10 UNK        -0.0876 
     60 S60        19.6576  -31.9872  -41.6346 S.3       10 UNK        -0.2414 
     61 C61        17.9628  -32.2880  -42.2194 C.3       10 UNK         0.0169 
     62 H62        17.5014  -22.2166  -46.4198 H         1 UNK         0.0903 
     63 H63        19.1797  -21.7205  -46.6483 H         1 UNK         0.0903 
     64 H64        18.0083  -21.5012  -47.9508 H         1 UNK         0.0903 
     65 H65        17.2379  -24.4446  -46.5685 H         1 UNK         0.3096 
     66 H66        18.4370  -25.9616  -48.7352 H         1 UNK         0.1121 
     67 H67        16.0762  -26.3076  -48.1174 H         1 UNK         0.0849 
     68 H68        16.9878  -27.7763  -48.0123 H         1 UNK         0.0849 
     69 H69        15.8573  -29.3522  -46.0979 H         1 UNK         0.0865 
     70 H70        17.5714  -29.0132  -46.0116 H         1 UNK         0.0865 
     71 H71        17.5497  -31.1074  -44.6374 H         1 UNK         0.1346 
     72 H72        16.9284  -30.5076  -40.4429 H         1 UNK         0.1412 
     73 H73        15.8134  -27.4449  -43.2155 H         1 UNK         0.1426 
     74 H74        15.2846  -28.4415  -39.8904 H         1 UNK         0.0716 
     75 H75        15.5083  -27.0406  -40.9130 H         1 UNK         0.0716 
     76 H76        17.8656  -26.1303  -41.5448 H         1 UNK         0.0695 
     77 H77        19.1276  -25.9083  -40.3711 H         1 UNK         0.0695 
     78 H78        18.8922  -28.4294  -42.1123 H         1 UNK         0.0983 
     79 H79        20.0926  -25.8698  -42.7679 H         1 UNK         0.3095 
     80 H80        21.3427  -25.5545  -44.5132 H         1 UNK         0.0454 
     81 H81        23.0610  -27.1908  -45.0673 H         1 UNK         0.0851 
     82 H82        22.6317  -26.3002  -46.5181 H         1 UNK         0.0851 
     83 H83        22.0508  -27.9479  -46.2825 H         1 UNK         0.0851 
     84 H84        19.5954  -25.0737  -45.7842 H         1 UNK         0.2976 
     85 H85        19.2727  -29.0876  -39.6941 H         1 UNK         0.3116 
     86 H86        21.6388  -30.5384  -39.6531 H         1 UNK         0.0646 
     87 H87        19.7392  -29.8690  -37.3418 H         1 UNK         0.0847 
     88 H88        19.5783  -31.2179  -38.4681 H         1 UNK         0.0847 
     89 H89        20.9189  -31.1732  -37.3373 H         1 UNK         0.0847 
     90 H90        21.1992  -27.2945  -38.4566 H         1 UNK         0.3040 
     91 H91        23.4632  -27.0914  -36.7252 H         1 UNK         0.1015 
     92 H92        23.1972  -24.6375  -37.1472 H         1 UNK         0.0786 
     93 H93        21.6513  -25.3884  -36.7910 H         1 UNK         0.0786 
     94 H94        22.0688  -24.9704  -38.4538 H         1 UNK         0.0786 
     95 H95        23.2061  -27.2016  -40.2457 H         1 UNK         0.3172 
     96 H96        26.0333  -26.3888  -40.6484 H         1 UNK         0.0595 
     97 H97        23.8580  -27.1895  -42.6567 H         1 UNK         0.0839 
     98 H98        25.4409  -26.5341  -43.0416 H         1 UNK         0.0839 
     99 H99        24.2626  -25.5325  -42.2109 H         1 UNK         0.0839 
    100 H100       24.3997  -29.1691  -39.7363 H         1 UNK         0.2998 
    101 H101       24.7004  -31.3427  -39.7178 H         1 UNK         0.0822 
    102 H102       26.9948  -32.2273  -39.6211 H         1 UNK         0.0787 
    103 H103       26.9303  -30.6893  -38.7788 H         1 UNK         0.0787 
    104 H104       27.6356  -30.7847  -40.3925 H         1 UNK         0.0787 
    105 H105       23.9043  -30.1438  -42.2919 H         1 UNK         0.3055 
    106 H106       25.0836  -31.7806  -44.3953 H         1 UNK         0.1106 
    107 H107       22.7211  -29.8313  -44.4055 H         1 UNK         0.0828 
    108 H108       24.3922  -29.4319  -44.8051 H         1 UNK         0.0828 
    109 H109       23.4766  -30.5215  -45.8338 H         1 UNK         0.0828 
    110 H110       22.4450  -32.2223  -42.2048 H         1 UNK         0.2931 
    111 H111       20.6784  -33.7356  -43.8197 H         1 UNK         0.0412 
    112 H112       21.5687  -37.1692  -43.6171 H         1 UNK         0.3472 
    113 H113       20.3654  -36.0045  -44.1050 H         1 UNK         0.3472 
    114 H114       19.5937  -34.3989  -41.6759 H         1 UNK         0.0970 
    115 H115       20.9610  -33.8027  -40.7723 H         1 UNK         0.0970 
    116 H116       17.4049  -32.8409  -41.4623 H         1 UNK         0.0612 
    117 H117       17.9898  -32.9119  -43.1142 H         1 UNK         0.0612 
@<TRIPOS>BOND
     1    1    2 1    
     2    1   62 1    
     3    1   63 1    
     4    1   64 1    
     5    2    3 2    
     6    2    4 am   BACKBONE|DICT|INTERRES
     7    4    5 1    
     8    4   65 1    
     9    5    6 1    
    10    5   25 1    
    11    5   66 1    
    12    6    7 1    
    13    6   67 1    
    14    6   68 1    
    15    7    8 1    
    16    8    9 1    
    17    8   69 1    
    18    8   70 1    
    19    9   10 ar   
    20    9   14 ar   
    21   10   11 ar   
    22   10   71 1    
    23   11   12 ar   
    24   11   61 1    
    25   12   13 ar   
    26   12   72 1    
    27   13   14 ar   
    28   13   15 1    
    29   14   73 1    
    30   15   16 1    
    31   15   74 1    
    32   15   75 1    
    33   16   17 1    
    34   17   18 1    
    35   17   76 1    
    36   17   77 1    
    37   18   19 1    
    38   18   27 1    
    39   18   78 1    
    40   19   20 am   BACKBONE|DICT|INTERRES
    41   19   79 1    
    42   20   21 2    
    43   20   22 1    
    44   22   23 1    
    45   22   24 1    
    46   22   80 1    
    47   23   81 1    
    48   23   82 1    
    49   23   83 1    
    50   24   25 am   BACKBONE|DICT|INTERRES
    51   24   84 1    
    52   25   26 2    
    53   27   28 2    
    54   27   29 am   BACKBONE|DICT|INTERRES
    55   29   30 1    
    56   29   85 1    
    57   30   31 1    
    58   30   32 1    
    59   30   86 1    
    60   31   87 1    
    61   31   88 1    
    62   31   89 1    
    63   32   33 2    
    64   32   34 am   BACKBONE|DICT|INTERRES
    65   34   35 1    
    66   34   90 1    
    67   35   36 1    
    68   35   37 1    
    69   35   91 1    
    70   36   92 1    
    71   36   93 1    
    72   36   94 1    
    73   37   38 2    
    74   37   39 am   BACKBONE|DICT|INTERRES
    75   39   40 1    
    76   39   95 1    
    77   40   41 1    
    78   40   42 1    
    79   40   96 1    
    80   41   97 1    
    81   41   98 1    
    82   41   99 1    
    83   42   43 2    
    84   42   44 am   BACKBONE|DICT|INTERRES
    85   44   45 1    
    86   44  100 1    
    87   45   46 1    
    88   45   47 1    
    89   45  101 1    
    90   46  102 1    
    91   46  103 1    
    92   46  104 1    
    93   47   48 2    
    94   47   49 am   BACKBONE|DICT|INTERRES
    95   49   50 1    
    96   49  105 1    
    97   50   51 1    
    98   50   52 1    
    99   50  106 1    
   100   51  107 1    
   101   51  108 1    
   102   51  109 1    
   103   52   53 2    
   104   52   54 am   BACKBONE|DICT|INTERRES
   105   54   55 1    
   106   54  110 1    
   107   55   56 1    
   108   55   59 1    
   109   55  111 1    
   110   56   57 am   BACKBONE|DICT|INTERRES
   111   56   58 2    
   112   57  112 1    
   113   57  113 1    
   114   59   60 1    
   115   59  114 1    
   116   59  115 1    
   117   60   61 1    
   118   61  116 1    
   119   61  117 1    
@<TRIPOS>SUBSTRUCTURE
     1 UNK         1 GROUP             0       ****    0 ROOT    
