@<TRIPOS>MOLECULE
3R8
117   119    1
SMALL
USER_CHARGES


@<TRIPOS>ATOM
      1 CA         16.1740  -23.0922  -43.0608 C.3       0 UNK        -0.2013 
      2 C          16.9989  -24.3641  -43.1831 C.2       0 UNK         0.4866 
      3 O          17.5416  -24.6427  -44.2529 O.2       0 UNK        -0.5176 
      4 N          17.1073  -25.1364  -42.0945 N.am      1 UNK        -0.4884 
      5 CA         17.8488  -26.4019  -42.0124 C.3       1 UNK         0.0853 
      6 C6         17.2997  -27.3101  -40.8838 C.3       10 UNK        -0.0849 
      7 S7         15.6621  -27.9642  -41.3487 S.3       10 UNK        -0.2776 
      8 C8         16.0522  -29.6925  -41.7835 C.3       10 UNK         0.0316 
      9 C9         17.2011  -29.8250  -42.7792 C.ar      10 UNK        -0.0863 
     10 C10        18.4061  -30.4046  -42.3743 C.ar      10 UNK        -0.1009 
     11 C11        19.4493  -30.5994  -43.2827 C.ar      10 UNK        -0.0712 
     12 C12        19.2931  -30.1782  -44.6065 C.ar      10 UNK        -0.0894 
     13 C13        18.0990  -29.5796  -45.0241 C.ar      10 UNK        -0.0745 
     14 C14        17.0545  -29.4112  -44.1069 C.ar      10 UNK        -0.0972 
     15 C15        17.9114  -29.1595  -46.4754 C.3       10 UNK         0.0209 
     16 S16        18.4876  -27.4598  -46.7800 S.3       10 UNK        -0.2568 
     17 C17        20.2233  -27.7317  -47.2772 C.3       10 UNK        -0.0983 
     18 CA         21.1540  -26.5804  -46.8261 C.3       3 UNK         0.0876 
     19 N          21.1425  -26.4098  -45.3697 N.am      3 UNK        -0.4424 
     20 C          21.6045  -25.3386  -44.7115 C.2       2 UNK         0.4918 
     21 O          22.1524  -24.3793  -45.2561 O.2       2 UNK        -0.4875 
     22 CA         21.3461  -25.3292  -43.1982 C.3       2 UNK         0.0481 
     23 CB         21.7628  -24.0187  -42.5040 C.3       2 UNK        -0.1831 
     24 N          19.9297  -25.5970  -42.9753 N.am      2 UNK        -0.4498 
     25 C          19.3658  -26.1553  -41.9006 C.2       1 UNK         0.5027 
     26 O          19.9744  -26.4607  -40.8727 O.2       1 UNK        -0.4969 
     27 C          22.5765  -26.7803  -47.3886 C.2       3 UNK         0.5005 
     28 O          22.8678  -26.3027  -48.4865 O.2       3 UNK        -0.5279 
     29 N          23.4325  -27.4672  -46.6244 N.am      4 UNK        -0.4463 
     30 CA         24.8484  -27.7031  -46.9067 C.3       4 UNK         0.0283 
     31 CB         25.0468  -28.7059  -48.0621 C.3       4 UNK        -0.1875 
     32 C          25.4738  -28.1871  -45.5996 C.2       4 UNK         0.4949 
     33 O          26.2832  -27.4783  -45.0019 O.2       4 UNK        -0.5039 
     34 N          24.9798  -29.3379  -45.1268 N.am      5 UNK        -0.4663 
     35 CA         24.9699  -29.6947  -43.7096 C.3       5 UNK         0.0242 
     36 CB         24.9132  -31.2241  -43.5840 C.3       5 UNK        -0.1982 
     37 C          23.7498  -29.0255  -43.0475 C.2       5 UNK         0.5017 
     38 O          22.8403  -28.5844  -43.7608 O.2       5 UNK        -0.5012 
     39 N          23.7516  -28.9483  -41.7128 N.am      6 UNK        -0.4439 
     40 CA         22.7450  -28.2257  -40.9365 C.3       6 UNK         0.0297 
     41 CB         23.3606  -26.9070  -40.4327 C.3       6 UNK        -0.2006 
     42 C          22.2348  -29.0589  -39.7600 C.2       6 UNK         0.4892 
     43 O          22.9075  -30.0032  -39.3395 O.2       6 UNK        -0.5089 
     44 N          21.0640  -28.6602  -39.2429 N.am      7 UNK        -0.4243 
     45 CA         20.3620  -29.2135  -38.0791 C.3       7 UNK         0.0196 
     46 CB         21.1188  -28.8632  -36.7778 C.3       7 UNK        -0.2007 
     47 C          20.0636  -30.7161  -38.2369 C.2       7 UNK         0.5020 
     48 O          19.1209  -31.0698  -38.9426 O.2       7 UNK        -0.5147 
     49 N          20.8690  -31.5697  -37.5918 N.am      8 UNK        -0.4734 
     50 CA         20.7996  -33.0320  -37.6911 C.3       8 UNK         0.0238 
     51 CB         21.4531  -33.6415  -36.4386 C.3       8 UNK        -0.1912 
     52 C          21.4479  -33.5965  -38.9723 C.2       8 UNK         0.5038 
     53 O          21.3543  -34.8028  -39.2028 O.2       8 UNK        -0.5046 
     54 N          22.1037  -32.7335  -39.7599 N.am      9 UNK        -0.4200 
     55 CA         22.8554  -33.0417  -40.9865 C.3       9 UNK         0.0839 
     56 C          24.2216  -33.7464  -40.7297 C.2       9 UNK         0.5513 
     57 N          24.7643  -33.7144  -39.5184 N.am      9 UNK        -0.7519 
     58 O          24.8167  -34.3075  -41.6460 O.2       9 UNK        -0.4960 
     59 C59        22.0265  -33.7456  -42.1034 C.3       10 UNK        -0.0876 
     60 S60        20.3734  -33.0480  -42.4416 S.3       10 UNK        -0.2414 
     61 C61        20.7209  -31.3047  -42.8334 C.3       10 UNK         0.0169 
     62 H62        15.3534  -23.1081  -43.7775 H         1 UNK         0.0903 
     63 H63        15.7508  -22.9740  -42.0635 H         1 UNK         0.0903 
     64 H64        16.7942  -22.2215  -43.2721 H         1 UNK         0.0903 
     65 H65        16.6504  -24.8490  -41.2405 H         1 UNK         0.3096 
     66 H66        17.7135  -26.9349  -42.9563 H         1 UNK         0.1121 
     67 H67        17.2150  -26.7587  -39.9459 H         1 UNK         0.0849 
     68 H68        17.9699  -28.1464  -40.6764 H         1 UNK         0.0849 
     69 H69        16.2754  -30.2398  -40.8659 H         1 UNK         0.0865 
     70 H70        15.1605  -30.1603  -42.2029 H         1 UNK         0.0865 
     71 H71        18.5245  -30.7440  -41.3555 H         1 UNK         0.1346 
     72 H72        20.0933  -30.3376  -45.3153 H         1 UNK         0.1412 
     73 H73        16.1227  -28.9641  -44.4266 H         1 UNK         0.1426 
     74 H74        16.8541  -29.2160  -46.7391 H         1 UNK         0.0716 
     75 H75        18.4215  -29.8546  -47.1442 H         1 UNK         0.0716 
     76 H76        20.2403  -27.8341  -48.3641 H         1 UNK         0.0695 
     77 H77        20.5771  -28.6822  -46.8761 H         1 UNK         0.0695 
     78 H78        20.7741  -25.6538  -47.2629 H         1 UNK         0.0983 
     79 H79        20.7169  -27.1555  -44.8377 H         1 UNK         0.3095 
     80 H80        21.9350  -26.1437  -42.7834 H         1 UNK         0.0454 
     81 H81        22.8209  -23.8101  -42.6660 H         1 UNK         0.0851 
     82 H82        21.6064  -24.0736  -41.4267 H         1 UNK         0.0851 
     83 H83        21.1972  -23.1668  -42.8827 H         1 UNK         0.0851 
     84 H84        19.3059  -25.3332  -43.7356 H         1 UNK         0.2976 
     85 H85        23.1150  -27.7796  -45.7102 H         1 UNK         0.3116 
     86 H86        25.3170  -26.7541  -47.1756 H         1 UNK         0.0646 
     87 H87        24.5065  -29.6384  -47.8975 H         1 UNK         0.0847 
     88 H88        24.7051  -28.2906  -49.0101 H         1 UNK         0.0847 
     89 H89        26.1017  -28.9545  -48.1845 H         1 UNK         0.0847 
     90 H90        24.3035  -29.8233  -45.6984 H         1 UNK         0.3040 
     91 H91        25.8811  -29.3288  -43.2303 H         1 UNK         0.1015 
     92 H92        25.0727  -31.5292  -42.5508 H         1 UNK         0.0786 
     93 H93        25.6952  -31.7002  -44.1760 H         1 UNK         0.0786 
     94 H94        23.9545  -31.6284  -43.9108 H         1 UNK         0.0786 
     95 H95        24.4769  -29.4025  -41.1738 H         1 UNK         0.3172 
     96 H96        21.8795  -28.0147  -41.5637 H         1 UNK         0.0595 
     97 H97        24.1759  -27.0864  -39.7306 H         1 UNK         0.0839 
     98 H98        22.6168  -26.2956  -39.9201 H         1 UNK         0.0839 
     99 H99        23.7570  -26.3101  -41.2537 H         1 UNK         0.0839 
    100 H100       20.6022  -27.8769  -39.7003 H         1 UNK         0.2998 
    101 H101       19.3924  -28.7142  -38.0385 H         1 UNK         0.0822 
    102 H102       20.6073  -29.2682  -35.9034 H         1 UNK         0.0787 
    103 H103       21.1747  -27.7830  -36.6415 H         1 UNK         0.0787 
    104 H104       22.1406  -29.2442  -36.7721 H         1 UNK         0.0787 
    105 H105       21.6341  -31.1849  -37.0556 H         1 UNK         0.3055 
    106 H106       19.7491  -33.3317  -37.7098 H         1 UNK         0.1106 
    107 H107       20.9615  -33.2992  -35.5278 H         1 UNK         0.0828 
    108 H108       21.3834  -34.7302  -36.4502 H         1 UNK         0.0828 
    109 H109       22.5105  -33.3843  -36.3678 H         1 UNK         0.0828 
    110 H110       22.1734  -31.7668  -39.4558 H         1 UNK         0.2931 
    111 H111       23.1277  -32.0618  -41.3751 H         1 UNK         0.0412 
    112 H112       24.2996  -33.2380  -38.7624 H         1 UNK         0.3472 
    113 H113       25.6526  -34.1649  -39.3629 H         1 UNK         0.3472 
    114 H114       22.5842  -33.7392  -43.0415 H         1 UNK         0.0970 
    115 H115       21.8871  -34.7986  -41.8534 H         1 UNK         0.0970 
    116 H116       21.4890  -31.2508  -43.6058 H         1 UNK         0.0612 
    117 H117       21.1182  -30.8025  -41.9515 H         1 UNK         0.0612 
@<TRIPOS>BOND
     1    1    2 1    
     2    1   62 1    
     3    1   63 1    
     4    1   64 1    
     5    2    3 2    
     6    2    4 am   BACKBONE|DICT|INTERRES
     7    4    5 1    
     8    4   65 1    
     9    5    6 1    
    10    5   25 1    
    11    5   66 1    
    12    6    7 1    
    13    6   67 1    
    14    6   68 1    
    15    7    8 1    
    16    8    9 1    
    17    8   69 1    
    18    8   70 1    
    19    9   10 ar   
    20    9   14 ar   
    21   10   11 ar   
    22   10   71 1    
    23   11   12 ar   
    24   11   61 1    
    25   12   13 ar   
    26   12   72 1    
    27   13   14 ar   
    28   13   15 1    
    29   14   73 1    
    30   15   16 1    
    31   15   74 1    
    32   15   75 1    
    33   16   17 1    
    34   17   18 1    
    35   17   76 1    
    36   17   77 1    
    37   18   19 1    
    38   18   27 1    
    39   18   78 1    
    40   19   20 am   BACKBONE|DICT|INTERRES
    41   19   79 1    
    42   20   21 2    
    43   20   22 1    
    44   22   23 1    
    45   22   24 1    
    46   22   80 1    
    47   23   81 1    
    48   23   82 1    
    49   23   83 1    
    50   24   25 am   BACKBONE|DICT|INTERRES
    51   24   84 1    
    52   25   26 2    
    53   27   28 2    
    54   27   29 am   BACKBONE|DICT|INTERRES
    55   29   30 1    
    56   29   85 1    
    57   30   31 1    
    58   30   32 1    
    59   30   86 1    
    60   31   87 1    
    61   31   88 1    
    62   31   89 1    
    63   32   33 2    
    64   32   34 am   BACKBONE|DICT|INTERRES
    65   34   35 1    
    66   34   90 1    
    67   35   36 1    
    68   35   37 1    
    69   35   91 1    
    70   36   92 1    
    71   36   93 1    
    72   36   94 1    
    73   37   38 2    
    74   37   39 am   BACKBONE|DICT|INTERRES
    75   39   40 1    
    76   39   95 1    
    77   40   41 1    
    78   40   42 1    
    79   40   96 1    
    80   41   97 1    
    81   41   98 1    
    82   41   99 1    
    83   42   43 2    
    84   42   44 am   BACKBONE|DICT|INTERRES
    85   44   45 1    
    86   44  100 1    
    87   45   46 1    
    88   45   47 1    
    89   45  101 1    
    90   46  102 1    
    91   46  103 1    
    92   46  104 1    
    93   47   48 2    
    94   47   49 am   BACKBONE|DICT|INTERRES
    95   49   50 1    
    96   49  105 1    
    97   50   51 1    
    98   50   52 1    
    99   50  106 1    
   100   51  107 1    
   101   51  108 1    
   102   51  109 1    
   103   52   53 2    
   104   52   54 am   BACKBONE|DICT|INTERRES
   105   54   55 1    
   106   54  110 1    
   107   55   56 1    
   108   55   59 1    
   109   55  111 1    
   110   56   57 am   BACKBONE|DICT|INTERRES
   111   56   58 2    
   112   57  112 1    
   113   57  113 1    
   114   59   60 1    
   115   59  114 1    
   116   59  115 1    
   117   60   61 1    
   118   61  116 1    
   119   61  117 1    
@<TRIPOS>SUBSTRUCTURE
     1 UNK         1 GROUP             0       ****    0 ROOT    
