@<TRIPOS>MOLECULE
3R8
117   119    1
SMALL
USER_CHARGES


@<TRIPOS>ATOM
      1 CA         14.7541  -27.0192  -41.8187 C.3       0 UNK        -0.2013 
      2 C          15.8814  -27.9535  -42.2495 C.2       0 UNK         0.4866 
      3 O          16.0016  -29.0404  -41.6901 O.2       0 UNK        -0.5176 
      4 N          16.7207  -27.5870  -43.2269 N.am      1 UNK        -0.4884 
      5 CA         16.7071  -26.3304  -43.9768 C.3       1 UNK         0.0853 
      6 C6         15.7551  -26.3617  -45.2127 C.3       10 UNK        -0.0849 
      7 S7         16.3297  -27.2126  -46.7271 S.3       10 UNK        -0.2776 
      8 C8         15.9183  -28.9605  -46.4194 C.3       10 UNK         0.0316 
      9 C9         17.1495  -29.7533  -46.0043 C.ar      10 UNK        -0.0863 
     10 C10        17.2063  -30.3797  -44.7564 C.ar      10 UNK        -0.1009 
     11 C11        18.3462  -31.0888  -44.3675 C.ar      10 UNK        -0.0712 
     12 C12        19.4226  -31.1981  -45.2509 C.ar      10 UNK        -0.0894 
     13 C13        19.3820  -30.5695  -46.5001 C.ar      10 UNK        -0.0745 
     14 C14        18.2383  -29.8610  -46.8753 C.ar      10 UNK        -0.0972 
     15 C15        20.5823  -30.6292  -47.4353 C.3       10 UNK         0.0209 
     16 S16        21.5145  -29.0599  -47.4543 S.3       10 UNK        -0.2568 
     17 C17        22.1129  -28.9796  -45.7320 C.3       10 UNK        -0.0983 
     18 CA         22.2019  -27.5533  -45.1324 C.3       3 UNK         0.0876 
     19 N          21.0239  -26.7275  -45.4223 N.am      3 UNK        -0.4424 
     20 C          21.0390  -25.3883  -45.4384 C.2       2 UNK         0.4918 
     21 O          22.0460  -24.7171  -45.2109 O.2       2 UNK        -0.4875 
     22 CA         19.7214  -24.6569  -45.7612 C.3       2 UNK         0.0481 
     23 CB         19.6702  -24.3026  -47.2560 C.3       2 UNK        -0.1831 
     24 N          18.4802  -25.3510  -45.3961 N.am      2 UNK        -0.4498 
     25 C          18.1567  -25.8481  -44.1952 C.2       1 UNK         0.5027 
     26 O          18.9491  -25.9051  -43.2543 O.2       1 UNK        -0.4969 
     27 C          22.5018  -27.6668  -43.6213 C.2       3 UNK         0.5005 
     28 O          23.5616  -28.1917  -43.2759 O.2       3 UNK        -0.5279 
     29 N          21.5730  -27.2525  -42.7434 N.am      4 UNK        -0.4463 
     30 CA         21.6602  -27.4319  -41.2902 C.3       4 UNK         0.0283 
     31 CB         20.4241  -26.8202  -40.6137 C.3       4 UNK        -0.1875 
     32 C          22.9521  -26.8583  -40.6820 C.2       4 UNK         0.4949 
     33 O          23.3514  -25.7467  -41.0317 O.2       4 UNK        -0.5039 
     34 N          23.5686  -27.6576  -39.8026 N.am      5 UNK        -0.4663 
     35 CA         24.8666  -27.4944  -39.1322 C.3       5 UNK         0.0242 
     36 CB         25.1358  -26.0603  -38.6315 C.3       5 UNK        -0.1982 
     37 C          26.0436  -28.0611  -39.9436 C.2       5 UNK         0.5017 
     38 O          27.0517  -28.4207  -39.3337 O.2       5 UNK        -0.5012 
     39 N          25.8960  -28.1915  -41.2704 N.am      6 UNK        -0.4439 
     40 CA         26.7509  -29.0481  -42.0970 C.3       6 UNK         0.0297 
     41 CB         26.9263  -28.4482  -43.5026 C.3       6 UNK        -0.2006 
     42 C          26.1382  -30.4564  -42.1483 C.2       6 UNK         0.4892 
     43 O          26.8341  -31.4350  -41.8745 O.2       6 UNK        -0.5089 
     44 N          24.8329  -30.5212  -42.4431 N.am      7 UNK        -0.4243 
     45 CA         23.9918  -31.7036  -42.2818 C.3       7 UNK         0.0196 
     46 CB         22.7560  -31.5670  -43.1856 C.3       7 UNK        -0.2007 
     47 C          23.5608  -31.8696  -40.8161 C.2       7 UNK         0.5020 
     48 O          23.5111  -30.8920  -40.0618 O.2       7 UNK        -0.5147 
     49 N          23.2004  -33.1100  -40.4603 N.am      8 UNK        -0.4734 
     50 CA         22.7929  -33.5375  -39.1150 C.3       8 UNK         0.0238 
     51 CB         22.6140  -35.0649  -39.1087 C.3       8 UNK        -0.1912 
     52 C          21.5324  -32.8481  -38.5591 C.2       8 UNK         0.5038 
     53 O          21.3331  -32.8660  -37.3437 O.2       8 UNK        -0.5046 
     54 N          20.7221  -32.2434  -39.4377 N.am      9 UNK        -0.4200 
     55 CA         19.6050  -31.3595  -39.0756 C.3       9 UNK         0.0839 
     56 C          20.0264  -29.9805  -38.4835 C.2       9 UNK         0.5513 
     57 N          21.3059  -29.6220  -38.4647 N.am      9 UNK        -0.7519 
     58 O          19.1771  -29.2358  -38.0016 O.2       9 UNK        -0.4960 
     59 C59        18.5728  -31.2285  -40.2255 C.3       10 UNK        -0.0876 
     60 S60        19.2610  -30.6190  -41.8060 S.3       10 UNK        -0.2414 
     61 C61        18.4167  -31.7194  -42.9864 C.3       10 UNK         0.0169 
     62 H62        14.0727  -27.5338  -41.1413 H         1 UNK         0.0903 
     63 H63        15.1546  -26.1541  -41.2909 H         1 UNK         0.0903 
     64 H64        14.1690  -26.6748  -42.6698 H         1 UNK         0.0903 
     65 H65        17.4855  -28.2059  -43.4609 H         1 UNK         0.3096 
     66 H66        16.3128  -25.5572  -43.3152 H         1 UNK         0.1121 
     67 H67        14.7884  -26.7809  -44.9325 H         1 UNK         0.0849 
     68 H68        15.5303  -25.3339  -45.5037 H         1 UNK         0.0849 
     69 H69        15.1265  -29.0374  -45.6728 H         1 UNK         0.0865 
     70 H70        15.5162  -29.3933  -47.3364 H         1 UNK         0.0865 
     71 H71        16.3683  -30.3050  -44.0771 H         1 UNK         0.1346 
     72 H72        20.3055  -31.7447  -44.9498 H         1 UNK         0.1412 
     73 H73        18.2052  -29.3703  -47.8389 H         1 UNK         0.1426 
     74 H74        20.2424  -30.8512  -48.4479 H         1 UNK         0.0716 
     75 H75        21.2533  -31.4419  -47.1526 H         1 UNK         0.0716 
     76 H76        23.0949  -29.4558  -45.7050 H         1 UNK         0.0695 
     77 H77        21.4726  -29.5940  -45.1035 H         1 UNK         0.0695 
     78 H78        23.0701  -27.0686  -45.5848 H         1 UNK         0.0983 
     79 H79        20.1680  -27.2164  -45.6407 H         1 UNK         0.3095 
     80 H80        19.7331  -23.7235  -45.1951 H         1 UNK         0.0454 
     81 H81        19.6045  -25.1959  -47.8787 H         1 UNK         0.0851 
     82 H82        20.5649  -23.7580  -47.5614 H         1 UNK         0.0851 
     83 H83        18.8147  -23.6678  -47.4868 H         1 UNK         0.0851 
     84 H84        17.7783  -25.4192  -46.1219 H         1 UNK         0.2976 
     85 H85        20.7308  -26.8034  -43.0899 H         1 UNK         0.3116 
     86 H86        21.6418  -28.5093  -41.1118 H         1 UNK         0.0646 
     87 H87        19.5085  -27.3110  -40.9453 H         1 UNK         0.0847 
     88 H88        20.3343  -25.7549  -40.8292 H         1 UNK         0.0847 
     89 H89        20.4719  -26.9313  -39.5300 H         1 UNK         0.0847 
     90 H90        23.1606  -28.5750  -39.6663 H         1 UNK         0.3040 
     91 H91        24.7964  -28.1268  -38.2453 H         1 UNK         0.1015 
     92 H92        25.3479  -25.3733  -39.4510 H         1 UNK         0.0786 
     93 H93        26.0028  -26.0412  -37.9701 H         1 UNK         0.0786 
     94 H94        24.2892  -25.6677  -38.0684 H         1 UNK         0.0786 
     95 H95        25.0290  -27.8787  -41.6927 H         1 UNK         0.3172 
     96 H96        27.7444  -29.1265  -41.6504 H         1 UNK         0.0595 
     97 H97        25.9873  -28.3832  -44.0506 H         1 UNK         0.0839 
     98 H98        27.6043  -29.0596  -44.0993 H         1 UNK         0.0839 
     99 H99        27.3532  -27.4465  -43.4532 H         1 UNK         0.0839 
    100 H100       24.3466  -29.6561  -42.6746 H         1 UNK         0.2998 
    101 H101       24.5584  -32.5860  -42.5870 H         1 UNK         0.0822 
    102 H102       23.0431  -31.4745  -44.2327 H         1 UNK         0.0787 
    103 H103       22.1073  -32.4402  -43.1060 H         1 UNK         0.0787 
    104 H104       22.1590  -30.6936  -42.9203 H         1 UNK         0.0787 
    105 H105       23.2503  -33.8388  -41.1584 H         1 UNK         0.3055 
    106 H106       23.6094  -33.2856  -38.4344 H         1 UNK         0.1106 
    107 H107       21.8271  -35.3820  -39.7943 H         1 UNK         0.0828 
    108 H108       22.3430  -35.4237  -38.1146 H         1 UNK         0.0828 
    109 H109       23.5347  -35.5752  -39.3923 H         1 UNK         0.0828 
    110 H110       20.9718  -32.2607  -40.4148 H         1 UNK         0.2931 
    111 H111       19.0769  -31.8552  -38.2586 H         1 UNK         0.0412 
    112 H112       22.0142  -30.2349  -38.8517 H         1 UNK         0.3472 
    113 H113       21.5581  -28.7560  -38.0174 H         1 UNK         0.3472 
    114 H114       17.7499  -30.5721  -39.9352 H         1 UNK         0.0970 
    115 H115       18.1152  -32.2049  -40.3897 H         1 UNK         0.0970 
    116 H116       18.9402  -32.6756  -43.0295 H         1 UNK         0.0612 
    117 H117       17.4065  -31.9319  -42.6326 H         1 UNK         0.0612 
@<TRIPOS>BOND
     1    1    2 1    
     2    1   62 1    
     3    1   63 1    
     4    1   64 1    
     5    2    3 2    
     6    2    4 am   BACKBONE|DICT|INTERRES
     7    4    5 1    
     8    4   65 1    
     9    5    6 1    
    10    5   25 1    
    11    5   66 1    
    12    6    7 1    
    13    6   67 1    
    14    6   68 1    
    15    7    8 1    
    16    8    9 1    
    17    8   69 1    
    18    8   70 1    
    19    9   10 ar   
    20    9   14 ar   
    21   10   11 ar   
    22   10   71 1    
    23   11   12 ar   
    24   11   61 1    
    25   12   13 ar   
    26   12   72 1    
    27   13   14 ar   
    28   13   15 1    
    29   14   73 1    
    30   15   16 1    
    31   15   74 1    
    32   15   75 1    
    33   16   17 1    
    34   17   18 1    
    35   17   76 1    
    36   17   77 1    
    37   18   19 1    
    38   18   27 1    
    39   18   78 1    
    40   19   20 am   BACKBONE|DICT|INTERRES
    41   19   79 1    
    42   20   21 2    
    43   20   22 1    
    44   22   23 1    
    45   22   24 1    
    46   22   80 1    
    47   23   81 1    
    48   23   82 1    
    49   23   83 1    
    50   24   25 am   BACKBONE|DICT|INTERRES
    51   24   84 1    
    52   25   26 2    
    53   27   28 2    
    54   27   29 am   BACKBONE|DICT|INTERRES
    55   29   30 1    
    56   29   85 1    
    57   30   31 1    
    58   30   32 1    
    59   30   86 1    
    60   31   87 1    
    61   31   88 1    
    62   31   89 1    
    63   32   33 2    
    64   32   34 am   BACKBONE|DICT|INTERRES
    65   34   35 1    
    66   34   90 1    
    67   35   36 1    
    68   35   37 1    
    69   35   91 1    
    70   36   92 1    
    71   36   93 1    
    72   36   94 1    
    73   37   38 2    
    74   37   39 am   BACKBONE|DICT|INTERRES
    75   39   40 1    
    76   39   95 1    
    77   40   41 1    
    78   40   42 1    
    79   40   96 1    
    80   41   97 1    
    81   41   98 1    
    82   41   99 1    
    83   42   43 2    
    84   42   44 am   BACKBONE|DICT|INTERRES
    85   44   45 1    
    86   44  100 1    
    87   45   46 1    
    88   45   47 1    
    89   45  101 1    
    90   46  102 1    
    91   46  103 1    
    92   46  104 1    
    93   47   48 2    
    94   47   49 am   BACKBONE|DICT|INTERRES
    95   49   50 1    
    96   49  105 1    
    97   50   51 1    
    98   50   52 1    
    99   50  106 1    
   100   51  107 1    
   101   51  108 1    
   102   51  109 1    
   103   52   53 2    
   104   52   54 am   BACKBONE|DICT|INTERRES
   105   54   55 1    
   106   54  110 1    
   107   55   56 1    
   108   55   59 1    
   109   55  111 1    
   110   56   57 am   BACKBONE|DICT|INTERRES
   111   56   58 2    
   112   57  112 1    
   113   57  113 1    
   114   59   60 1    
   115   59  114 1    
   116   59  115 1    
   117   60   61 1    
   118   61  116 1    
   119   61  117 1    
@<TRIPOS>SUBSTRUCTURE
     1 UNK         1 GROUP             0       ****    0 ROOT    
