@<TRIPOS>MOLECULE
3R8
117   119    1
SMALL
USER_CHARGES


@<TRIPOS>ATOM
      1 CA         17.1264  -27.4253  -48.2311 C.3       0 UNK        -0.2013 
      2 C          17.3910  -26.8846  -46.8338 C.2       0 UNK         0.4866 
      3 O          17.5837  -25.6792  -46.6746 O.2       0 UNK        -0.5176 
      4 N          17.4027  -27.7727  -45.8300 N.am      1 UNK        -0.4884 
      5 CA         17.6287  -27.4866  -44.4050 C.3       1 UNK         0.0853 
      6 C6         16.4973  -26.6611  -43.7308 C.3       10 UNK        -0.0849 
      7 S7         14.8566  -27.4448  -43.8786 S.3       10 UNK        -0.2776 
      8 C8         14.7927  -28.4634  -42.3638 C.3       10 UNK         0.0316 
      9 C9         15.7734  -29.6315  -42.3956 C.ar      10 UNK        -0.0863 
     10 C10        15.7604  -30.5305  -43.4681 C.ar      10 UNK        -0.1009 
     11 C11        16.6541  -31.6035  -43.5104 C.ar      10 UNK        -0.0712 
     12 C12        17.5403  -31.7974  -42.4494 C.ar      10 UNK        -0.0894 
     13 C13        17.5719  -30.9058  -41.3748 C.ar      10 UNK        -0.0745 
     14 C14        16.6888  -29.8207  -41.3528 C.ar      10 UNK        -0.0972 
     15 C15        18.5558  -31.1427  -40.2397 C.3       10 UNK         0.0209 
     16 S16        20.2442  -30.6530  -40.7090 S.3       10 UNK        -0.2568 
     17 C17        20.2858  -28.9319  -40.1199 C.3       10 UNK        -0.0983 
     18 CA         21.4321  -28.1222  -40.7711 C.3       3 UNK         0.0876 
     19 N          21.2309  -27.9865  -42.2209 N.am      3 UNK        -0.4424 
     20 C          21.9909  -27.3155  -43.1005 C.2       2 UNK         0.4918 
     21 O          23.0347  -26.7411  -42.8001 O.2       2 UNK        -0.4875 
     22 CA         21.4735  -27.2004  -44.5475 C.3       2 UNK         0.0481 
     23 CB         22.3328  -28.0512  -45.4923 C.3       2 UNK        -0.1831 
     24 N          20.0569  -27.5500  -44.7148 N.am      2 UNK        -0.4498 
     25 C          19.0307  -26.9000  -44.1424 C.2       1 UNK         0.5027 
     26 O          19.1732  -25.9145  -43.4142 O.2       1 UNK        -0.4969 
     27 C          21.6333  -26.7870  -40.0153 C.2       3 UNK         0.5005 
     28 O          22.1750  -26.8023  -38.9102 O.2       3 UNK        -0.5279 
     29 N          21.2369  -25.6563  -40.6182 N.am      4 UNK        -0.4463 
     30 CA         21.5395  -24.3029  -40.1469 C.3       4 UNK         0.0283 
     31 CB         20.7801  -23.2910  -41.0197 C.3       4 UNK        -0.1875 
     32 C          23.0464  -23.9645  -40.1243 C.2       4 UNK         0.4949 
     33 O          23.4434  -23.0960  -39.3469 O.2       4 UNK        -0.5039 
     34 N          23.8557  -24.6342  -40.9592 N.am      5 UNK        -0.4663 
     35 CA         25.3038  -24.4246  -41.0684 C.3       5 UNK         0.0242 
     36 CB         25.5833  -23.3243  -42.1117 C.3       5 UNK        -0.1982 
     37 C          26.0589  -25.7329  -41.3750 C.2       5 UNK         0.5017 
     38 O          27.1577  -25.6832  -41.9306 O.2       5 UNK        -0.5012 
     39 N          25.4672  -26.8780  -41.0173 N.am      6 UNK        -0.4439 
     40 CA         25.9648  -28.2328  -41.2578 C.3       6 UNK         0.0297 
     41 CB         25.8986  -28.5931  -42.7618 C.3       6 UNK        -0.2006 
     42 C          25.1670  -29.1940  -40.3611 C.2       6 UNK         0.4892 
     43 O          24.7693  -28.7982  -39.2639 O.2       6 UNK        -0.5089 
     44 N          24.9236  -30.4214  -40.8316 N.am      7 UNK        -0.4243 
     45 CA         24.1194  -31.4450  -40.1701 C.3       7 UNK         0.0196 
     46 CB         24.9509  -32.1440  -39.0768 C.3       7 UNK        -0.2007 
     47 C          23.6372  -32.4515  -41.2220 C.2       7 UNK         0.5020 
     48 O          24.1584  -32.4628  -42.3407 O.2       7 UNK        -0.5147 
     49 N          22.6617  -33.2856  -40.8341 N.am      8 UNK        -0.4734 
     50 CA         22.1205  -34.4331  -41.5812 C.3       8 UNK         0.0238 
     51 CB         23.1594  -35.5749  -41.6119 C.3       8 UNK        -0.1912 
     52 C          21.5838  -34.0898  -42.9871 C.2       8 UNK         0.5038 
     53 O          21.7127  -34.9006  -43.9063 O.2       8 UNK        -0.5046 
     54 N          20.9957  -32.8939  -43.1277 N.am      9 UNK        -0.4200 
     55 CA         20.5101  -32.3151  -44.3923 C.3       9 UNK         0.0839 
     56 C          21.6403  -31.8890  -45.3806 C.2       9 UNK         0.5513 
     57 N          22.9056  -31.8515  -44.9768 N.am      9 UNK        -0.7519 
     58 O          21.3667  -31.5492  -46.5281 O.2       9 UNK        -0.4960 
     59 C59        19.4052  -33.1875  -45.0662 C.3       10 UNK        -0.0876 
     60 S60        18.0581  -32.2080  -45.8209 S.3       10 UNK        -0.2414 
     61 C61        16.6600  -32.5491  -44.7016 C.3       10 UNK         0.0169 
     62 H62        17.9654  -27.1957  -48.8874 H         1 UNK         0.0903 
     63 H63        16.9817  -28.5056  -48.2314 H         1 UNK         0.0903 
     64 H64        16.2314  -26.9639  -48.6478 H         1 UNK         0.0903 
     65 H65        17.2242  -28.7447  -46.0430 H         1 UNK         0.3096 
     66 H66        17.6542  -28.4591  -43.9150 H         1 UNK         0.1121 
     67 H67        16.4398  -25.6646  -44.1720 H         1 UNK         0.0849 
     68 H68        16.7100  -26.5069  -42.6711 H         1 UNK         0.0849 
     69 H69        14.9657  -27.8269  -41.4946 H         1 UNK         0.0865 
     70 H70        13.7832  -28.8616  -42.2532 H         1 UNK         0.0865 
     71 H71        15.0610  -30.3827  -44.2798 H         1 UNK         0.1346 
     72 H72        18.2195  -32.6372  -42.4631 H         1 UNK         0.1412 
     73 H73        16.7079  -29.1321  -40.5189 H         1 UNK         0.1426 
     74 H74        18.5590  -32.2032  -39.9833 H         1 UNK         0.0716 
     75 H75        18.2478  -30.6150  -39.3356 H         1 UNK         0.0716 
     76 H76        20.3992  -28.9682  -39.0342 H         1 UNK         0.0695 
     77 H77        19.3227  -28.4559  -40.3150 H         1 UNK         0.0695 
     78 H78        22.3574  -28.6824  -40.6395 H         1 UNK         0.0983 
     79 H79        20.4009  -28.4350  -42.5766 H         1 UNK         0.3095 
     80 H80        21.5854  -26.1552  -44.8429 H         1 UNK         0.0454 
     81 H81        22.0131  -27.9489  -46.5293 H         1 UNK         0.0851 
     82 H82        22.2918  -29.1057  -45.2277 H         1 UNK         0.0851 
     83 H83        23.3799  -27.7481  -45.4457 H         1 UNK         0.0851 
     84 H84        19.8507  -28.3331  -45.3189 H         1 UNK         0.2976 
     85 H85        20.7750  -25.7307  -41.5156 H         1 UNK         0.3116 
     86 H86        21.1700  -24.2177  -39.1229 H         1 UNK         0.0646 
     87 H87        21.0919  -23.3450  -42.0637 H         1 UNK         0.0847 
     88 H88        20.9573  -22.2700  -40.6788 H         1 UNK         0.0847 
     89 H89        19.7039  -23.4614  -40.9823 H         1 UNK         0.0847 
     90 H90        23.4620  -25.3326  -41.5873 H         1 UNK         0.3040 
     91 H91        25.6907  -24.0861  -40.1046 H         1 UNK         0.1015 
     92 H92        25.2467  -23.6231  -43.1052 H         1 UNK         0.0786 
     93 H93        26.6491  -23.1023  -42.1782 H         1 UNK         0.0786 
     94 H94        25.0790  -22.3932  -41.8526 H         1 UNK         0.0786 
     95 H95        24.6089  -26.8363  -40.4824 H         1 UNK         0.3172 
     96 H96        27.0051  -28.2772  -40.9299 H         1 UNK         0.0595 
     97 H97        24.8703  -28.6673  -43.1165 H         1 UNK         0.0839 
     98 H98        26.3888  -29.5459  -42.9644 H         1 UNK         0.0839 
     99 H99        26.4038  -27.8498  -43.3780 H         1 UNK         0.0839 
    100 H100       25.2312  -30.6807  -41.7615 H         1 UNK         0.2998 
    101 H101       23.2420  -30.9746  -39.7208 H         1 UNK         0.0822 
    102 H102       24.3711  -32.9159  -38.5696 H         1 UNK         0.0787 
    103 H103       25.8383  -32.6223  -39.4933 H         1 UNK         0.0787 
    104 H104       25.2794  -31.4384  -38.3134 H         1 UNK         0.0787 
    105 H105       22.2808  -33.1613  -39.9054 H         1 UNK         0.3055 
    106 H106       21.2572  -34.7899  -41.0168 H         1 UNK         0.1106 
    107 H107       22.7364  -36.4823  -42.0448 H         1 UNK         0.0828 
    108 H108       24.0336  -35.3071  -42.2065 H         1 UNK         0.0828 
    109 H109       23.5016  -35.8282  -40.6085 H         1 UNK         0.0828 
    110 H110       20.9545  -32.2839  -42.3218 H         1 UNK         0.2931 
    111 H111       20.0507  -31.3757  -44.0821 H         1 UNK         0.0412 
    112 H112       23.1728  -32.1325  -44.0393 H         1 UNK         0.3472 
    113 H113       23.6171  -31.5709  -45.6320 H         1 UNK         0.3472 
    114 H114       18.9660  -33.8741  -44.3424 H         1 UNK         0.0970 
    115 H115       19.8352  -33.8366  -45.8314 H         1 UNK         0.0970 
    116 H116       16.6819  -33.5858  -44.3631 H         1 UNK         0.0612 
    117 H117       15.7347  -32.4404  -45.2694 H         1 UNK         0.0612 
@<TRIPOS>BOND
     1    1    2 1    
     2    1   62 1    
     3    1   63 1    
     4    1   64 1    
     5    2    3 2    
     6    2    4 am   BACKBONE|DICT|INTERRES
     7    4    5 1    
     8    4   65 1    
     9    5    6 1    
    10    5   25 1    
    11    5   66 1    
    12    6    7 1    
    13    6   67 1    
    14    6   68 1    
    15    7    8 1    
    16    8    9 1    
    17    8   69 1    
    18    8   70 1    
    19    9   10 ar   
    20    9   14 ar   
    21   10   11 ar   
    22   10   71 1    
    23   11   12 ar   
    24   11   61 1    
    25   12   13 ar   
    26   12   72 1    
    27   13   14 ar   
    28   13   15 1    
    29   14   73 1    
    30   15   16 1    
    31   15   74 1    
    32   15   75 1    
    33   16   17 1    
    34   17   18 1    
    35   17   76 1    
    36   17   77 1    
    37   18   19 1    
    38   18   27 1    
    39   18   78 1    
    40   19   20 am   BACKBONE|DICT|INTERRES
    41   19   79 1    
    42   20   21 2    
    43   20   22 1    
    44   22   23 1    
    45   22   24 1    
    46   22   80 1    
    47   23   81 1    
    48   23   82 1    
    49   23   83 1    
    50   24   25 am   BACKBONE|DICT|INTERRES
    51   24   84 1    
    52   25   26 2    
    53   27   28 2    
    54   27   29 am   BACKBONE|DICT|INTERRES
    55   29   30 1    
    56   29   85 1    
    57   30   31 1    
    58   30   32 1    
    59   30   86 1    
    60   31   87 1    
    61   31   88 1    
    62   31   89 1    
    63   32   33 2    
    64   32   34 am   BACKBONE|DICT|INTERRES
    65   34   35 1    
    66   34   90 1    
    67   35   36 1    
    68   35   37 1    
    69   35   91 1    
    70   36   92 1    
    71   36   93 1    
    72   36   94 1    
    73   37   38 2    
    74   37   39 am   BACKBONE|DICT|INTERRES
    75   39   40 1    
    76   39   95 1    
    77   40   41 1    
    78   40   42 1    
    79   40   96 1    
    80   41   97 1    
    81   41   98 1    
    82   41   99 1    
    83   42   43 2    
    84   42   44 am   BACKBONE|DICT|INTERRES
    85   44   45 1    
    86   44  100 1    
    87   45   46 1    
    88   45   47 1    
    89   45  101 1    
    90   46  102 1    
    91   46  103 1    
    92   46  104 1    
    93   47   48 2    
    94   47   49 am   BACKBONE|DICT|INTERRES
    95   49   50 1    
    96   49  105 1    
    97   50   51 1    
    98   50   52 1    
    99   50  106 1    
   100   51  107 1    
   101   51  108 1    
   102   51  109 1    
   103   52   53 2    
   104   52   54 am   BACKBONE|DICT|INTERRES
   105   54   55 1    
   106   54  110 1    
   107   55   56 1    
   108   55   59 1    
   109   55  111 1    
   110   56   57 am   BACKBONE|DICT|INTERRES
   111   56   58 2    
   112   57  112 1    
   113   57  113 1    
   114   59   60 1    
   115   59  114 1    
   116   59  115 1    
   117   60   61 1    
   118   61  116 1    
   119   61  117 1    
@<TRIPOS>SUBSTRUCTURE
     1 UNK         1 GROUP             0       ****    0 ROOT    
