@<TRIPOS>MOLECULE
3R8
117   119    1
SMALL
USER_CHARGES


@<TRIPOS>ATOM
      1 CA         16.2462  -21.7302  -42.7210 C.3       0 UNK        -0.2013 
      2 C          16.1185  -22.9652  -43.6000 C.2       0 UNK         0.4866 
      3 O          16.2921  -22.8717  -44.8151 O.2       0 UNK        -0.5176 
      4 N          15.8136  -24.1220  -42.9958 N.am      1 UNK        -0.4884 
      5 CA         15.6711  -25.4130  -43.6839 C.3       1 UNK         0.0853 
      6 C6         14.9447  -26.4449  -42.7814 C.3       10 UNK        -0.0849 
      7 S7         14.1391  -27.7807  -43.7295 S.3       10 UNK        -0.2776 
      8 C8         14.8638  -29.2810  -42.9862 C.3       10 UNK         0.0316 
      9 C9         16.3012  -29.5337  -43.4271 C.ar      10 UNK        -0.0863 
     10 C10        17.3497  -29.4644  -42.5048 C.ar      10 UNK        -0.1009 
     11 C11        18.6600  -29.7582  -42.8953 C.ar      10 UNK        -0.0712 
     12 C12        18.9199  -30.1089  -44.2232 C.ar      10 UNK        -0.0894 
     13 C13        17.8832  -30.1739  -45.1630 C.ar      10 UNK        -0.0745 
     14 C14        16.5767  -29.8906  -44.7510 C.ar      10 UNK        -0.0972 
     15 C15        18.1220  -30.6183  -46.6062 C.3       10 UNK         0.0209 
     16 S16        19.7857  -30.2563  -47.2671 S.3       10 UNK        -0.2568 
     17 C17        19.6326  -28.5308  -47.8579 C.3       10 UNK        -0.0983 
     18 CA         20.4454  -27.4783  -47.0590 C.3       3 UNK         0.0876 
     19 N          19.8737  -27.2562  -45.7286 N.am      3 UNK        -0.4424 
     20 C          20.0426  -26.1485  -44.9958 C.2       2 UNK         0.4918 
     21 O          20.6399  -25.1452  -45.3891 O.2       2 UNK        -0.4875 
     22 CA         19.4617  -26.1900  -43.5713 C.3       2 UNK         0.0481 
     23 CB         20.3727  -25.4576  -42.5706 C.3       2 UNK        -0.1831 
     24 N          18.0973  -25.6723  -43.4403 N.am      2 UNK        -0.4498 
     25 C          17.0211  -25.9661  -44.1891 C.2       1 UNK         0.5027 
     26 O          17.0435  -26.6402  -45.2178 O.2       1 UNK        -0.4969 
     27 C          21.9549  -27.8117  -46.9982 C.2       3 UNK         0.5005 
     28 O          22.6522  -27.6725  -48.0048 O.2       3 UNK        -0.5279 
     29 N          22.4249  -28.2401  -45.8212 N.am      4 UNK        -0.4463 
     30 CA         23.8027  -28.5679  -45.4871 C.3       4 UNK         0.0283 
     31 CB         24.0488  -30.0638  -45.7394 C.3       4 UNK        -0.1875 
     32 C          24.0312  -28.1872  -44.0183 C.2       4 UNK         0.4949 
     33 O          23.0628  -28.0372  -43.2677 O.2       4 UNK        -0.5039 
     34 N          25.3038  -28.0012  -43.6534 N.am      5 UNK        -0.4663 
     35 CA         25.7376  -27.5084  -42.3444 C.3       5 UNK         0.0242 
     36 CB         27.2087  -27.0704  -42.4537 C.3       5 UNK        -0.1982 
     37 C          25.5701  -28.5320  -41.2068 C.2       5 UNK         0.5017 
     38 O          25.5456  -29.7401  -41.4578 O.2       5 UNK        -0.5012 
     39 N          25.5353  -28.0001  -39.9748 N.am      6 UNK        -0.4439 
     40 CA         25.4315  -28.6819  -38.6772 C.3       6 UNK         0.0297 
     41 CB         26.5713  -29.7081  -38.4939 C.3       6 UNK        -0.2006 
     42 C          24.0557  -29.3220  -38.4209 C.2       6 UNK         0.4892 
     43 O          23.2507  -29.4866  -39.3381 O.2       6 UNK        -0.5089 
     44 N          23.8218  -29.7058  -37.1576 N.am      7 UNK        -0.4243 
     45 CA         22.6142  -30.4092  -36.7033 C.3       7 UNK         0.0196 
     46 CB         22.6171  -30.4778  -35.1674 C.3       7 UNK        -0.2007 
     47 C          22.4570  -31.8186  -37.3063 C.2       7 UNK         0.5020 
     48 O          21.3422  -32.3379  -37.3515 O.2       7 UNK        -0.5147 
     49 N          23.5697  -32.4024  -37.7723 N.am      8 UNK        -0.4734 
     50 CA         23.6079  -33.6508  -38.5349 C.3       8 UNK         0.0238 
     51 CB         25.0446  -34.1994  -38.5153 C.3       8 UNK        -0.1912 
     52 C          23.1129  -33.4975  -39.9868 C.2       8 UNK         0.5038 
     53 O          22.8145  -34.5159  -40.6118 O.2       8 UNK        -0.5046 
     54 N          23.0406  -32.2561  -40.4930 N.am      9 UNK        -0.4200 
     55 CA         22.6352  -31.8878  -41.8575 C.3       9 UNK         0.0839 
     56 C          23.5824  -32.4940  -42.9288 C.2       9 UNK         0.5513 
     57 N          24.8474  -32.0962  -42.9301 N.am      9 UNK        -0.7519 
     58 O          23.1862  -33.3141  -43.7536 O.2       9 UNK        -0.4960 
     59 C59        21.1289  -32.1536  -42.1397 C.3       10 UNK        -0.0876 
     60 S60        20.0362  -31.2429  -40.9943 S.3       10 UNK        -0.2414 
     61 C61        19.7948  -29.6740  -41.8833 C.3       10 UNK         0.0169 
     62 H62        17.2484  -21.3110  -42.8067 H         1 UNK         0.0903 
     63 H63        15.5313  -20.9704  -43.0357 H         1 UNK         0.0903 
     64 H64        16.0613  -21.9545  -41.6706 H         1 UNK         0.0903 
     65 H65        15.6658  -24.1334  -41.9959 H         1 UNK         0.3096 
     66 H66        15.0517  -25.2355  -44.5667 H         1 UNK         0.1121 
     67 H67        15.6200  -26.8598  -42.0303 H         1 UNK         0.0849 
     68 H68        14.1500  -25.9509  -42.2198 H         1 UNK         0.0849 
     69 H69        14.7913  -29.2189  -41.8992 H         1 UNK         0.0865 
     70 H70        14.2555  -30.1389  -43.2766 H         1 UNK         0.0865 
     71 H71        17.1471  -29.1978  -41.4765 H         1 UNK         0.1346 
     72 H72        19.9321  -30.3426  -44.5192 H         1 UNK         0.1412 
     73 H73        15.7633  -29.9554  -45.4611 H         1 UNK         0.1426 
     74 H74        17.3723  -30.1840  -47.2694 H         1 UNK         0.0716 
     75 H75        17.9735  -31.6980  -46.6480 H         1 UNK         0.0716 
     76 H76        19.9518  -28.5175  -48.9015 H         1 UNK         0.0695 
     77 H77        18.5803  -28.2426  -47.8766 H         1 UNK         0.0695 
     78 H78        20.3669  -26.5359  -47.6060 H         1 UNK         0.0983 
     79 H79        19.2873  -27.9968  -45.3665 H         1 UNK         0.3095 
     80 H80        19.4318  -27.2324  -43.2640 H         1 UNK         0.0454 
     81 H81        21.3993  -25.8209  -42.6401 H         1 UNK         0.0851 
     82 H82        20.3944  -24.3828  -42.7548 H         1 UNK         0.0851 
     83 H83        20.0464  -25.6176  -41.5430 H         1 UNK         0.0851 
     84 H84        17.9379  -25.0663  -42.6493 H         1 UNK         0.2976 
     85 H85        21.8027  -28.2458  -45.0234 H         1 UNK         0.3116 
     86 H86        24.4810  -27.9745  -46.1040 H         1 UNK         0.0646 
     87 H87        25.0481  -30.3622  -45.4210 H         1 UNK         0.0847 
     88 H88        23.9601  -30.3038  -46.7990 H         1 UNK         0.0847 
     89 H89        23.3314  -30.6821  -45.2003 H         1 UNK         0.0847 
     90 H90        26.0339  -28.1907  -44.3246 H         1 UNK         0.3040 
     91 H91        25.1293  -26.6331  -42.1037 H         1 UNK         0.1015 
     92 H92        27.3401  -26.3034  -43.2174 H         1 UNK         0.0786 
     93 H93        27.8601  -27.9092  -42.7037 H         1 UNK         0.0786 
     94 H94        27.5685  -26.6501  -41.5136 H         1 UNK         0.0786 
     95 H95        25.5504  -26.9916  -39.9120 H         1 UNK         0.3172 
     96 H96        25.5607  -27.9008  -37.9262 H         1 UNK         0.0595 
     97 H97        26.6151  -30.0750  -37.4680 H         1 UNK         0.0839 
     98 H98        26.4480  -30.5773  -39.1410 H         1 UNK         0.0839 
     99 H99        27.5425  -29.2648  -38.7142 H         1 UNK         0.0839 
    100 H100       24.5269  -29.5252  -36.4568 H         1 UNK         0.2998 
    101 H101       21.7478  -29.8246  -37.0207 H         1 UNK         0.0822 
    102 H102       21.7165  -30.9701  -34.7973 H         1 UNK         0.0787 
    103 H103       23.4731  -31.0385  -34.7894 H         1 UNK         0.0787 
    104 H104       22.6438  -29.4819  -34.7247 H         1 UNK         0.0787 
    105 H105       24.4428  -31.9072  -37.6676 H         1 UNK         0.3055 
    106 H106       22.9538  -34.3759  -38.0450 H         1 UNK         0.1106 
    107 H107       25.3898  -34.3756  -37.4964 H         1 UNK         0.0828 
    108 H108       25.1059  -35.1515  -39.0445 H         1 UNK         0.0828 
    109 H109       25.7453  -33.5153  -38.9961 H         1 UNK         0.0828 
    110 H110       23.2828  -31.4685  -39.9033 H         1 UNK         0.2931 
    111 H111       22.7803  -30.8081  -41.9238 H         1 UNK         0.0412 
    112 H112       25.1538  -31.3591  -42.2978 H         1 UNK         0.3472 
    113 H113       25.4886  -32.4810  -43.6043 H         1 UNK         0.3472 
    114 H114       20.9066  -33.2180  -42.0508 H         1 UNK         0.0970 
    115 H115       20.8796  -31.8883  -43.1662 H         1 UNK         0.0970 
    116 H116       19.5763  -28.8932  -41.1531 H         1 UNK         0.0612 
    117 H117       20.7251  -29.3762  -42.3696 H         1 UNK         0.0612 
@<TRIPOS>BOND
     1    1    2 1    
     2    1   62 1    
     3    1   63 1    
     4    1   64 1    
     5    2    3 2    
     6    2    4 am   BACKBONE|DICT|INTERRES
     7    4    5 1    
     8    4   65 1    
     9    5    6 1    
    10    5   25 1    
    11    5   66 1    
    12    6    7 1    
    13    6   67 1    
    14    6   68 1    
    15    7    8 1    
    16    8    9 1    
    17    8   69 1    
    18    8   70 1    
    19    9   10 ar   
    20    9   14 ar   
    21   10   11 ar   
    22   10   71 1    
    23   11   12 ar   
    24   11   61 1    
    25   12   13 ar   
    26   12   72 1    
    27   13   14 ar   
    28   13   15 1    
    29   14   73 1    
    30   15   16 1    
    31   15   74 1    
    32   15   75 1    
    33   16   17 1    
    34   17   18 1    
    35   17   76 1    
    36   17   77 1    
    37   18   19 1    
    38   18   27 1    
    39   18   78 1    
    40   19   20 am   BACKBONE|DICT|INTERRES
    41   19   79 1    
    42   20   21 2    
    43   20   22 1    
    44   22   23 1    
    45   22   24 1    
    46   22   80 1    
    47   23   81 1    
    48   23   82 1    
    49   23   83 1    
    50   24   25 am   BACKBONE|DICT|INTERRES
    51   24   84 1    
    52   25   26 2    
    53   27   28 2    
    54   27   29 am   BACKBONE|DICT|INTERRES
    55   29   30 1    
    56   29   85 1    
    57   30   31 1    
    58   30   32 1    
    59   30   86 1    
    60   31   87 1    
    61   31   88 1    
    62   31   89 1    
    63   32   33 2    
    64   32   34 am   BACKBONE|DICT|INTERRES
    65   34   35 1    
    66   34   90 1    
    67   35   36 1    
    68   35   37 1    
    69   35   91 1    
    70   36   92 1    
    71   36   93 1    
    72   36   94 1    
    73   37   38 2    
    74   37   39 am   BACKBONE|DICT|INTERRES
    75   39   40 1    
    76   39   95 1    
    77   40   41 1    
    78   40   42 1    
    79   40   96 1    
    80   41   97 1    
    81   41   98 1    
    82   41   99 1    
    83   42   43 2    
    84   42   44 am   BACKBONE|DICT|INTERRES
    85   44   45 1    
    86   44  100 1    
    87   45   46 1    
    88   45   47 1    
    89   45  101 1    
    90   46  102 1    
    91   46  103 1    
    92   46  104 1    
    93   47   48 2    
    94   47   49 am   BACKBONE|DICT|INTERRES
    95   49   50 1    
    96   49  105 1    
    97   50   51 1    
    98   50   52 1    
    99   50  106 1    
   100   51  107 1    
   101   51  108 1    
   102   51  109 1    
   103   52   53 2    
   104   52   54 am   BACKBONE|DICT|INTERRES
   105   54   55 1    
   106   54  110 1    
   107   55   56 1    
   108   55   59 1    
   109   55  111 1    
   110   56   57 am   BACKBONE|DICT|INTERRES
   111   56   58 2    
   112   57  112 1    
   113   57  113 1    
   114   59   60 1    
   115   59  114 1    
   116   59  115 1    
   117   60   61 1    
   118   61  116 1    
   119   61  117 1    
@<TRIPOS>SUBSTRUCTURE
     1 UNK         1 GROUP             0       ****    0 ROOT    
