@<TRIPOS>MOLECULE
3R8
117   119    1
SMALL
USER_CHARGES


@<TRIPOS>ATOM
      1 CA         19.8960  -29.3036  -42.0614 C.3       0 UNK        -0.2013 
      2 C          18.5418  -28.6170  -42.1001 C.2       0 UNK         0.4866 
      3 O          18.1526  -27.9814  -41.1204 O.2       0 UNK        -0.5176 
      4 N          17.8119  -28.7482  -43.2165 N.am      1 UNK        -0.4884 
      5 CA         16.4583  -28.2029  -43.3945 C.3       1 UNK         0.0853 
      6 C6         15.7412  -28.7582  -44.6521 C.3       10 UNK        -0.0849 
      7 S7         15.7452  -30.5800  -44.7655 S.3       10 UNK        -0.2776 
      8 C8         16.7228  -30.8509  -46.2804 C.3       10 UNK         0.0316 
      9 C9         18.2129  -30.6712  -46.0295 C.ar      10 UNK        -0.0863 
     10 C10        18.9731  -31.7514  -45.5727 C.ar      10 UNK        -0.1009 
     11 C11        20.3424  -31.6069  -45.3368 C.ar      10 UNK        -0.0712 
     12 C12        20.9519  -30.3722  -45.5737 C.ar      10 UNK        -0.0894 
     13 C13        20.1998  -29.2739  -46.0043 C.ar      10 UNK        -0.0745 
     14 C14        18.8326  -29.4360  -46.2506 C.ar      10 UNK        -0.0972 
     15 C15        20.8607  -27.9119  -46.1828 C.3       10 UNK         0.0209 
     16 S16        21.6567  -27.3616  -44.6399 S.3       10 UNK        -0.2568 
     17 C17        22.0380  -25.6090  -44.9845 C.3       10 UNK        -0.0983 
     18 CA         21.4296  -24.6245  -43.9463 C.3       3 UNK         0.0876 
     19 N          19.9859  -24.7804  -43.7946 N.am      3 UNK        -0.4424 
     20 C          19.0672  -24.3147  -44.6436 C.2       2 UNK         0.4918 
     21 O          19.3419  -23.6900  -45.6696 O.2       2 UNK        -0.4875 
     22 CA         17.6052  -24.6322  -44.2975 C.3       2 UNK         0.0481 
     23 CB         16.6160  -24.1559  -45.3834 C.3       2 UNK        -0.1831 
     24 N          17.4642  -26.0696  -44.0673 N.am      2 UNK        -0.4498 
     25 C          16.4401  -26.6613  -43.4383 C.2       1 UNK         0.5027 
     26 O          15.4999  -26.0503  -42.9278 O.2       1 UNK        -0.4969 
     27 C          22.0712  -24.7558  -42.5533 C.2       3 UNK         0.5005 
     28 O          21.5046  -25.4261  -41.6848 O.2       3 UNK        -0.5279 
     29 N          23.2310  -24.1127  -42.3651 N.am      4 UNK        -0.4463 
     30 CA         23.9934  -24.1249  -41.1104 C.3       4 UNK         0.0283 
     31 CB         24.3792  -22.6795  -40.7509 C.3       4 UNK        -0.1875 
     32 C          25.2551  -25.0035  -41.1839 C.2       4 UNK         0.4949 
     33 O          25.8193  -25.3222  -40.1373 O.2       4 UNK        -0.5039 
     34 N          25.6987  -25.3578  -42.3988 N.am      5 UNK        -0.4663 
     35 CA         26.9316  -26.1167  -42.6383 C.3       5 UNK         0.0242 
     36 CB         27.4419  -25.7989  -44.0540 C.3       5 UNK        -0.1982 
     37 C          26.7669  -27.6365  -42.4613 C.2       5 UNK         0.5017 
     38 O          27.7665  -28.3271  -42.2565 O.2       5 UNK        -0.5012 
     39 N          25.5288  -28.1315  -42.5739 N.am      6 UNK        -0.4439 
     40 CA         25.1781  -29.5471  -42.4585 C.3       6 UNK         0.0297 
     41 CB         23.9200  -29.8060  -43.3051 C.3       6 UNK        -0.2006 
     42 C          24.9515  -29.9689  -40.9958 C.2       6 UNK         0.4892 
     43 O          25.0040  -29.1394  -40.0837 O.2       6 UNK        -0.5089 
     44 N          24.6775  -31.2668  -40.8140 N.am      7 UNK        -0.4243 
     45 CA         24.2165  -31.8701  -39.5618 C.3       7 UNK         0.0196 
     46 CB         24.5456  -33.3762  -39.6015 C.3       7 UNK        -0.2007 
     47 C          22.7117  -31.6053  -39.3336 C.2       7 UNK         0.5020 
     48 O          22.1286  -30.7285  -39.9722 O.2       7 UNK        -0.5147 
     49 N          22.0916  -32.3721  -38.4256 N.am      8 UNK        -0.4734 
     50 CA         20.6505  -32.3092  -38.1488 C.3       8 UNK         0.0238 
     51 CB         20.3340  -33.1274  -36.8862 C.3       8 UNK        -0.1912 
     52 C          19.7798  -32.7782  -39.3306 C.2       8 UNK         0.5038 
     53 O          18.6833  -32.2487  -39.5131 O.2       8 UNK        -0.5046 
     54 N          20.2890  -33.7510  -40.1019 N.am      9 UNK        -0.4200 
     55 CA         19.6737  -34.3196  -41.3161 C.3       9 UNK         0.0839 
     56 C          18.3183  -35.0574  -41.0825 C.2       9 UNK         0.5513 
     57 N          18.0034  -35.4862  -39.8659 N.am      9 UNK        -0.7519 
     58 O          17.5550  -35.2810  -42.0187 O.2       9 UNK        -0.4960 
     59 C59        19.6204  -33.3000  -42.4912 C.3       10 UNK        -0.0876 
     60 S60        21.2864  -32.7413  -42.9942 S.3       10 UNK        -0.2414 
     61 C61        21.1647  -32.7747  -44.8115 C.3       10 UNK         0.0169 
     62 H62        20.1421  -29.7758  -43.0099 H         1 UNK         0.0903 
     63 H63        20.6807  -28.5842  -41.8275 H         1 UNK         0.0903 
     64 H64        19.9004  -30.0754  -41.2924 H         1 UNK         0.0903 
     65 H65        18.1619  -29.3123  -43.9808 H         1 UNK         0.3096 
     66 H66        15.8754  -28.5024  -42.5203 H         1 UNK         0.1121 
     67 H67        14.6969  -28.4387  -44.6511 H         1 UNK         0.0849 
     68 H68        16.1703  -28.3361  -45.5617 H         1 UNK         0.0849 
     69 H69        16.5331  -31.8633  -46.6408 H         1 UNK         0.0865 
     70 H70        16.3801  -30.1849  -47.0740 H         1 UNK         0.0865 
     71 H71        18.4941  -32.7044  -45.3953 H         1 UNK         0.1346 
     72 H72        22.0094  -30.2544  -45.3865 H         1 UNK         0.1412 
     73 H73        18.2493  -28.5976  -46.6054 H         1 UNK         0.1426 
     74 H74        20.1266  -27.1659  -46.4914 H         1 UNK         0.0716 
     75 H75        21.6072  -27.9693  -46.9760 H         1 UNK         0.0716 
     76 H76        23.1223  -25.4967  -45.0330 H         1 UNK         0.0695 
     77 H77        21.6761  -25.3529  -45.9812 H         1 UNK         0.0695 
     78 H78        21.6190  -23.6042  -44.2880 H         1 UNK         0.0983 
     79 H79        19.7123  -25.2611  -42.9461 H         1 UNK         0.3095 
     80 H80        17.3798  -24.1050  -43.3683 H         1 UNK         0.0454 
     81 H81        16.7228  -23.0863  -45.5686 H         1 UNK         0.0851 
     82 H82        16.7821  -24.6704  -46.3305 H         1 UNK         0.0851 
     83 H83        15.5805  -24.3243  -45.0884 H         1 UNK         0.0851 
     84 H84        18.2129  -26.6508  -44.4194 H         1 UNK         0.2976 
     85 H85        23.6082  -23.5533  -43.1178 H         1 UNK         0.3116 
     86 H86        23.3797  -24.5169  -40.2965 H         1 UNK         0.0646 
     87 H87        24.9251  -22.6434  -39.8070 H         1 UNK         0.0847 
     88 H88        23.4961  -22.0509  -40.6349 H         1 UNK         0.0847 
     89 H89        25.0162  -22.2273  -41.5121 H         1 UNK         0.0847 
     90 H90        25.1812  -25.0626  -43.2126 H         1 UNK         0.3040 
     91 H91        27.6911  -25.7899  -41.9239 H         1 UNK         0.1015 
     92 H92        27.6371  -24.7332  -44.1760 H         1 UNK         0.0786 
     93 H93        26.7262  -26.1007  -44.8200 H         1 UNK         0.0786 
     94 H94        28.3772  -26.3222  -44.2586 H         1 UNK         0.0786 
     95 H95        24.7645  -27.4811  -42.6778 H         1 UNK         0.3172 
     96 H96        25.9938  -30.1499  -42.8636 H         1 UNK         0.0595 
     97 H97        24.0349  -29.4170  -44.3169 H         1 UNK         0.0839 
     98 H98        23.0361  -29.3442  -42.8628 H         1 UNK         0.0839 
     99 H99        23.7131  -30.8723  -43.3966 H         1 UNK         0.0839 
    100 H100       24.6236  -31.8573  -41.6308 H         1 UNK         0.2998 
    101 H101       24.7607  -31.4163  -38.7309 H         1 UNK         0.0822 
    102 H102       25.5973  -33.5435  -39.8353 H         1 UNK         0.0787 
    103 H103       24.3608  -33.8553  -38.6396 H         1 UNK         0.0787 
    104 H104       23.9514  -33.8993  -40.3523 H         1 UNK         0.0787 
    105 H105       22.6280  -33.0617  -37.9188 H         1 UNK         0.3055 
    106 H106       20.3912  -31.2658  -37.9537 H         1 UNK         0.1106 
    107 H107       20.5961  -34.1792  -37.0066 H         1 UNK         0.0828 
    108 H108       20.8723  -32.7437  -36.0193 H         1 UNK         0.0828 
    109 H109       19.2700  -33.0819  -36.6491 H         1 UNK         0.0828 
    110 H110       21.1960  -34.1198  -39.8597 H         1 UNK         0.2931 
    111 H111       20.3503  -35.1173  -41.6251 H         1 UNK         0.0412 
    112 H112       17.1321  -35.9729  -39.7238 H         1 UNK         0.3472 
    113 H113       18.6235  -35.3223  -39.0893 H         1 UNK         0.3472 
    114 H114       19.1354  -33.7525  -43.3564 H         1 UNK         0.0970 
    115 H115       19.0165  -32.4299  -42.2292 H         1 UNK         0.0970 
    116 H116       20.7430  -33.7257  -45.1402 H         1 UNK         0.0612 
    117 H117       22.1719  -32.7293  -45.2284 H         1 UNK         0.0612 
@<TRIPOS>BOND
     1    1    2 1    
     2    1   62 1    
     3    1   63 1    
     4    1   64 1    
     5    2    3 2    
     6    2    4 am   BACKBONE|DICT|INTERRES
     7    4    5 1    
     8    4   65 1    
     9    5    6 1    
    10    5   25 1    
    11    5   66 1    
    12    6    7 1    
    13    6   67 1    
    14    6   68 1    
    15    7    8 1    
    16    8    9 1    
    17    8   69 1    
    18    8   70 1    
    19    9   10 ar   
    20    9   14 ar   
    21   10   11 ar   
    22   10   71 1    
    23   11   12 ar   
    24   11   61 1    
    25   12   13 ar   
    26   12   72 1    
    27   13   14 ar   
    28   13   15 1    
    29   14   73 1    
    30   15   16 1    
    31   15   74 1    
    32   15   75 1    
    33   16   17 1    
    34   17   18 1    
    35   17   76 1    
    36   17   77 1    
    37   18   19 1    
    38   18   27 1    
    39   18   78 1    
    40   19   20 am   BACKBONE|DICT|INTERRES
    41   19   79 1    
    42   20   21 2    
    43   20   22 1    
    44   22   23 1    
    45   22   24 1    
    46   22   80 1    
    47   23   81 1    
    48   23   82 1    
    49   23   83 1    
    50   24   25 am   BACKBONE|DICT|INTERRES
    51   24   84 1    
    52   25   26 2    
    53   27   28 2    
    54   27   29 am   BACKBONE|DICT|INTERRES
    55   29   30 1    
    56   29   85 1    
    57   30   31 1    
    58   30   32 1    
    59   30   86 1    
    60   31   87 1    
    61   31   88 1    
    62   31   89 1    
    63   32   33 2    
    64   32   34 am   BACKBONE|DICT|INTERRES
    65   34   35 1    
    66   34   90 1    
    67   35   36 1    
    68   35   37 1    
    69   35   91 1    
    70   36   92 1    
    71   36   93 1    
    72   36   94 1    
    73   37   38 2    
    74   37   39 am   BACKBONE|DICT|INTERRES
    75   39   40 1    
    76   39   95 1    
    77   40   41 1    
    78   40   42 1    
    79   40   96 1    
    80   41   97 1    
    81   41   98 1    
    82   41   99 1    
    83   42   43 2    
    84   42   44 am   BACKBONE|DICT|INTERRES
    85   44   45 1    
    86   44  100 1    
    87   45   46 1    
    88   45   47 1    
    89   45  101 1    
    90   46  102 1    
    91   46  103 1    
    92   46  104 1    
    93   47   48 2    
    94   47   49 am   BACKBONE|DICT|INTERRES
    95   49   50 1    
    96   49  105 1    
    97   50   51 1    
    98   50   52 1    
    99   50  106 1    
   100   51  107 1    
   101   51  108 1    
   102   51  109 1    
   103   52   53 2    
   104   52   54 am   BACKBONE|DICT|INTERRES
   105   54   55 1    
   106   54  110 1    
   107   55   56 1    
   108   55   59 1    
   109   55  111 1    
   110   56   57 am   BACKBONE|DICT|INTERRES
   111   56   58 2    
   112   57  112 1    
   113   57  113 1    
   114   59   60 1    
   115   59  114 1    
   116   59  115 1    
   117   60   61 1    
   118   61  116 1    
   119   61  117 1    
@<TRIPOS>SUBSTRUCTURE
     1 UNK         1 GROUP             0       ****    0 ROOT    
