@<TRIPOS>MOLECULE
3R8
117   119    1
SMALL
USER_CHARGES


@<TRIPOS>ATOM
      1 CA         14.9734  -26.2081  -48.3884 C.3       0 UNK        -0.2013 
      2 C          15.9289  -26.6812  -47.3027 C.2       0 UNK         0.4866 
      3 O          17.1016  -26.9231  -47.5859 O.2       0 UNK        -0.5176 
      4 N          15.4315  -26.8211  -46.0679 N.am      1 UNK        -0.4884 
      5 CA         16.2057  -27.2176  -44.8851 C.3       1 UNK         0.0853 
      6 C6         15.2840  -27.8179  -43.7894 C.3       10 UNK        -0.0849 
      7 S7         14.8356  -29.5348  -44.2092 S.3       10 UNK        -0.2776 
      8 C8         15.8890  -30.4947  -43.0652 C.3       10 UNK         0.0316 
      9 C9         17.3649  -30.1127  -43.1380 C.ar      10 UNK        -0.0863 
     10 C10        18.0161  -29.6067  -42.0092 C.ar      10 UNK        -0.1009 
     11 C11        19.3736  -29.2749  -42.0571 C.ar      10 UNK        -0.0712 
     12 C12        20.0772  -29.4318  -43.2549 C.ar      10 UNK        -0.0894 
     13 C13        19.4334  -29.9177  -44.3981 C.ar      10 UNK        -0.0745 
     14 C14        18.0825  -30.2723  -44.3266 C.ar      10 UNK        -0.0972 
     15 C15        20.1845  -30.0798  -45.7125 C.3       10 UNK         0.0209 
     16 S16        20.2693  -28.5175  -46.6483 S.3       10 UNK        -0.2568 
     17 C17        21.8142  -27.7741  -46.0207 C.3       10 UNK        -0.0983 
     18 CA         21.6340  -26.3717  -45.3826 C.3       3 UNK         0.0876 
     19 N          20.5641  -26.3562  -44.3784 N.am      3 UNK        -0.4424 
     20 C          20.1126  -25.2824  -43.7143 C.2       2 UNK         0.4918 
     21 O          20.5610  -24.1438  -43.8530 O.2       2 UNK        -0.4875 
     22 CA         18.9522  -25.5510  -42.7385 C.3       2 UNK         0.0481 
     23 CB         18.3628  -24.2714  -42.1068 C.3       2 UNK        -0.1831 
     24 N          17.9192  -26.3962  -43.3512 N.am      2 UNK        -0.4498 
     25 C          17.0780  -26.0644  -44.3442 C.2       1 UNK         0.5027 
     26 O          16.9790  -24.9293  -44.8176 O.2       1 UNK        -0.4969 
     27 C          22.9926  -25.8973  -44.8243 C.2       3 UNK         0.5005 
     28 O          23.7397  -25.2132  -45.5257 O.2       3 UNK        -0.5279 
     29 N          23.2854  -26.2924  -43.5808 N.am      4 UNK        -0.4463 
     30 CA         24.5104  -26.0415  -42.8310 C.3       4 UNK         0.0283 
     31 CB         25.6764  -26.8657  -43.4168 C.3       4 UNK        -0.1875 
     32 C          24.2418  -26.4350  -41.3725 C.2       4 UNK         0.4949 
     33 O          23.1770  -26.9830  -41.0770 O.2       4 UNK        -0.5039 
     34 N          25.2190  -26.1782  -40.4988 N.am      5 UNK        -0.4663 
     35 CA         25.2371  -26.6126  -39.1029 C.3       5 UNK         0.0242 
     36 CB         25.4272  -25.3755  -38.2039 C.3       5 UNK        -0.1982 
     37 C          26.3934  -27.6200  -38.9497 C.2       5 UNK         0.5017 
     38 O          27.5182  -27.1883  -38.6977 O.2       5 UNK        -0.5012 
     39 N          26.1894  -28.9295  -39.1461 N.am      6 UNK        -0.4439 
     40 CA         24.9670  -29.6329  -39.5375 C.3       6 UNK         0.0297 
     41 CB         24.4942  -30.5031  -38.3611 C.3       6 UNK        -0.2006 
     42 C          25.2615  -30.5020  -40.7668 C.2       6 UNK         0.4892 
     43 O          26.4082  -30.9138  -40.9625 O.2       6 UNK        -0.5089 
     44 N          24.2148  -30.7722  -41.5535 N.am      7 UNK        -0.4243 
     45 CA         24.2424  -31.6456  -42.7263 C.3       7 UNK         0.0196 
     46 CB         23.9230  -30.8202  -43.9887 C.3       7 UNK        -0.2007 
     47 C          23.2803  -32.8141  -42.4678 C.2       7 UNK         0.5020 
     48 O          23.5548  -33.6195  -41.5783 O.2       7 UNK        -0.5147 
     49 N          22.1601  -32.8844  -43.2040 N.am      8 UNK        -0.4734 
     50 CA         21.1170  -33.9141  -43.0592 C.3       8 UNK         0.0238 
     51 CB         20.0594  -33.7265  -44.1586 C.3       8 UNK        -0.1912 
     52 C          20.4481  -33.9375  -41.6706 C.2       8 UNK         0.5038 
     53 O          19.9935  -34.9941  -41.2310 O.2       8 UNK        -0.5046 
     54 N          20.4360  -32.7783  -41.0049 N.am      9 UNK        -0.4200 
     55 CA         20.0865  -32.5858  -39.5924 C.3       9 UNK         0.0839 
     56 C          21.0809  -33.2117  -38.5680 C.2       9 UNK         0.5513 
     57 N          22.2617  -33.6754  -38.9606 N.am      9 UNK        -0.7519 
     58 O          20.7634  -33.2886  -37.3840 O.2       9 UNK        -0.4960 
     59 C59        19.8148  -31.0881  -39.2829 C.3       10 UNK        -0.0876 
     60 S60        21.0857  -29.9556  -39.9608 S.3       10 UNK        -0.2414 
     61 C61        20.0703  -28.7155  -40.8231 C.3       10 UNK         0.0169 
     62 H62        13.9657  -26.0485  -48.0051 H         1 UNK         0.0903 
     63 H63        15.3264  -25.2695  -48.8149 H         1 UNK         0.0903 
     64 H64        14.9186  -26.9466  -49.1878 H         1 UNK         0.0903 
     65 H65        14.4637  -26.5890  -45.8969 H         1 UNK         0.3096 
     66 H66        16.9160  -27.9820  -45.2057 H         1 UNK         0.1121 
     67 H67        15.7448  -27.8156  -42.8005 H         1 UNK         0.0849 
     68 H68        14.3726  -27.2272  -43.6816 H         1 UNK         0.0849 
     69 H69        15.5065  -30.3697  -42.0509 H         1 UNK         0.0865 
     70 H70        15.7865  -31.5555  -43.2980 H         1 UNK         0.0865 
     71 H71        17.4656  -29.4763  -41.0873 H         1 UNK         0.1346 
     72 H72        21.1226  -29.1641  -43.2913 H         1 UNK         0.1412 
     73 H73        17.5796  -30.6592  -45.2029 H         1 UNK         0.1426 
     74 H74        19.6796  -30.8199  -46.3354 H         1 UNK         0.0716 
     75 H75        21.1839  -30.4789  -45.5401 H         1 UNK         0.0716 
     76 H76        22.2788  -28.4593  -45.3112 H         1 UNK         0.0695 
     77 H77        22.5069  -27.7112  -46.8623 H         1 UNK         0.0695 
     78 H78        21.3425  -25.6716  -46.1686 H         1 UNK         0.0983 
     79 H79        20.0879  -27.2358  -44.2440 H         1 UNK         0.3095 
     80 H80        19.3737  -26.1353  -41.9217 H         1 UNK         0.0454 
     81 H81        19.1190  -23.7470  -41.5215 H         1 UNK         0.0851 
     82 H82        17.5372  -24.5036  -41.4345 H         1 UNK         0.0851 
     83 H83        17.9988  -23.5702  -42.8578 H         1 UNK         0.0851 
     84 H84        17.9105  -27.3566  -43.0325 H         1 UNK         0.2976 
     85 H85        22.5931  -26.7966  -43.0391 H         1 UNK         0.3116 
     86 H86        24.7422  -24.9755  -42.8720 H         1 UNK         0.0646 
     87 H87        25.4866  -27.9368  -43.3423 H         1 UNK         0.0847 
     88 H88        25.8510  -26.6302  -44.4664 H         1 UNK         0.0847 
     89 H89        26.6097  -26.6647  -42.8900 H         1 UNK         0.0847 
     90 H90        26.0737  -25.7553  -40.8348 H         1 UNK         0.3040 
     91 H91        24.2958  -27.0743  -38.8022 H         1 UNK         0.1015 
     92 H92        24.5833  -24.6913  -38.2948 H         1 UNK         0.0786 
     93 H93        25.4982  -25.6644  -37.1545 H         1 UNK         0.0786 
     94 H94        26.3323  -24.8199  -38.4529 H         1 UNK         0.0786 
     95 H95        27.0042  -29.5285  -39.1410 H         1 UNK         0.3172 
     96 H96        24.1657  -28.9504  -39.8058 H         1 UNK         0.0595 
     97 H97        25.2550  -31.2241  -38.0593 H         1 UNK         0.0839 
     98 H98        23.5993  -31.0685  -38.6230 H         1 UNK         0.0839 
     99 H99        24.2464  -29.8935  -37.4921 H         1 UNK         0.0839 
    100 H100       23.3066  -30.4259  -41.2739 H         1 UNK         0.2998 
    101 H101       25.2325  -32.0879  -42.8564 H         1 UNK         0.0822 
    102 H102       23.8820  -31.4503  -44.8783 H         1 UNK         0.0787 
    103 H103       24.6969  -30.0744  -44.1683 H         1 UNK         0.0787 
    104 H104       22.9767  -30.2918  -43.9017 H         1 UNK         0.0787 
    105 H105       22.0136  -32.1910  -43.9218 H         1 UNK         0.3055 
    106 H106       21.5936  -34.8866  -43.2014 H         1 UNK         0.1106 
    107 H107       19.5322  -32.7788  -44.0521 H         1 UNK         0.0828 
    108 H108       20.5042  -33.7574  -45.1533 H         1 UNK         0.0828 
    109 H109       19.3102  -34.5183  -44.1160 H         1 UNK         0.0828 
    110 H110       20.8169  -31.9643  -41.4626 H         1 UNK         0.2931 
    111 H111       19.1463  -33.1173  -39.4334 H         1 UNK         0.0412 
    112 H112       22.8763  -34.0828  -38.2744 H         1 UNK         0.3472 
    113 H113       22.5569  -33.6318  -39.9309 H         1 UNK         0.3472 
    114 H114       18.8400  -30.8224  -39.6878 H         1 UNK         0.0970 
    115 H115       19.7255  -30.9115  -38.2092 H         1 UNK         0.0970 
    116 H116       20.7177  -27.8905  -41.1184 H         1 UNK         0.0612 
    117 H117       19.3451  -28.2953  -40.1245 H         1 UNK         0.0612 
@<TRIPOS>BOND
     1    1    2 1    
     2    1   62 1    
     3    1   63 1    
     4    1   64 1    
     5    2    3 2    
     6    2    4 am   BACKBONE|DICT|INTERRES
     7    4    5 1    
     8    4   65 1    
     9    5    6 1    
    10    5   25 1    
    11    5   66 1    
    12    6    7 1    
    13    6   67 1    
    14    6   68 1    
    15    7    8 1    
    16    8    9 1    
    17    8   69 1    
    18    8   70 1    
    19    9   10 ar   
    20    9   14 ar   
    21   10   11 ar   
    22   10   71 1    
    23   11   12 ar   
    24   11   61 1    
    25   12   13 ar   
    26   12   72 1    
    27   13   14 ar   
    28   13   15 1    
    29   14   73 1    
    30   15   16 1    
    31   15   74 1    
    32   15   75 1    
    33   16   17 1    
    34   17   18 1    
    35   17   76 1    
    36   17   77 1    
    37   18   19 1    
    38   18   27 1    
    39   18   78 1    
    40   19   20 am   BACKBONE|DICT|INTERRES
    41   19   79 1    
    42   20   21 2    
    43   20   22 1    
    44   22   23 1    
    45   22   24 1    
    46   22   80 1    
    47   23   81 1    
    48   23   82 1    
    49   23   83 1    
    50   24   25 am   BACKBONE|DICT|INTERRES
    51   24   84 1    
    52   25   26 2    
    53   27   28 2    
    54   27   29 am   BACKBONE|DICT|INTERRES
    55   29   30 1    
    56   29   85 1    
    57   30   31 1    
    58   30   32 1    
    59   30   86 1    
    60   31   87 1    
    61   31   88 1    
    62   31   89 1    
    63   32   33 2    
    64   32   34 am   BACKBONE|DICT|INTERRES
    65   34   35 1    
    66   34   90 1    
    67   35   36 1    
    68   35   37 1    
    69   35   91 1    
    70   36   92 1    
    71   36   93 1    
    72   36   94 1    
    73   37   38 2    
    74   37   39 am   BACKBONE|DICT|INTERRES
    75   39   40 1    
    76   39   95 1    
    77   40   41 1    
    78   40   42 1    
    79   40   96 1    
    80   41   97 1    
    81   41   98 1    
    82   41   99 1    
    83   42   43 2    
    84   42   44 am   BACKBONE|DICT|INTERRES
    85   44   45 1    
    86   44  100 1    
    87   45   46 1    
    88   45   47 1    
    89   45  101 1    
    90   46  102 1    
    91   46  103 1    
    92   46  104 1    
    93   47   48 2    
    94   47   49 am   BACKBONE|DICT|INTERRES
    95   49   50 1    
    96   49  105 1    
    97   50   51 1    
    98   50   52 1    
    99   50  106 1    
   100   51  107 1    
   101   51  108 1    
   102   51  109 1    
   103   52   53 2    
   104   52   54 am   BACKBONE|DICT|INTERRES
   105   54   55 1    
   106   54  110 1    
   107   55   56 1    
   108   55   59 1    
   109   55  111 1    
   110   56   57 am   BACKBONE|DICT|INTERRES
   111   56   58 2    
   112   57  112 1    
   113   57  113 1    
   114   59   60 1    
   115   59  114 1    
   116   59  115 1    
   117   60   61 1    
   118   61  116 1    
   119   61  117 1    
@<TRIPOS>SUBSTRUCTURE
     1 UNK         1 GROUP             0       ****    0 ROOT    
