@<TRIPOS>MOLECULE
3R8
117   119    1
SMALL
USER_CHARGES


@<TRIPOS>ATOM
      1 CA         17.3502  -23.0196  -49.1211 C.3       0 UNK        -0.2013 
      2 C          18.3787  -23.6907  -48.2229 C.2       0 UNK         0.4866 
      3 O          19.4650  -23.1464  -48.0213 O.2       0 UNK        -0.5176 
      4 N          18.0497  -24.8730  -47.6892 N.am      1 UNK        -0.4884 
      5 CA         18.8749  -25.6275  -46.7411 C.3       1 UNK         0.0853 
      6 C6         18.4426  -27.1160  -46.6577 C.3       10 UNK        -0.0849 
      7 S7         16.6573  -27.3639  -46.3501 S.3       10 UNK        -0.2776 
      8 C8         16.5434  -29.1805  -46.3353 C.3       10 UNK         0.0316 
      9 C9         17.1596  -29.7765  -45.0782 C.ar      10 UNK        -0.0863 
     10 C10        18.3624  -30.4855  -45.1441 C.ar      10 UNK        -0.1009 
     11 C11        18.9211  -31.0432  -43.9903 C.ar      10 UNK        -0.0712 
     12 C12        18.2569  -30.9037  -42.7672 C.ar      10 UNK        -0.0894 
     13 C13        17.0709  -30.1655  -42.6829 C.ar      10 UNK        -0.0745 
     14 C14        16.5218  -29.6166  -43.8450 C.ar      10 UNK        -0.0972 
     15 C15        16.3859  -29.9394  -41.3399 C.3       10 UNK         0.0209 
     16 S16        17.4815  -29.1710  -40.0979 S.3       10 UNK        -0.2568 
     17 C17        18.0084  -27.6160  -40.9067 C.3       10 UNK        -0.0983 
     18 CA         19.3956  -27.7358  -41.6004 C.3       3 UNK         0.0876 
     19 N          19.6726  -26.6273  -42.5166 N.am      3 UNK        -0.4424 
     20 C          20.0122  -25.3703  -42.1975 C.2       2 UNK         0.4918 
     21 O          20.1391  -24.9683  -41.0400 O.2       2 UNK        -0.4875 
     22 CA         20.2800  -24.3958  -43.3629 C.3       2 UNK         0.0481 
     23 CB         21.7173  -23.8525  -43.3054 C.3       2 UNK        -0.1831 
     24 N          20.0562  -24.9969  -44.6842 N.am      2 UNK        -0.4498 
     25 C          18.8956  -24.9482  -45.3535 C.2       1 UNK         0.5027 
     26 O          17.8748  -24.4120  -44.9139 O.2       1 UNK        -0.4969 
     27 C          20.5962  -28.0059  -40.6685 C.2       3 UNK         0.5005 
     28 O          21.6667  -28.3436  -41.1735 O.2       3 UNK        -0.5279 
     29 N          20.4273  -27.8444  -39.3488 N.am      4 UNK        -0.4463 
     30 CA         21.4312  -28.1238  -38.3145 C.3       4 UNK         0.0283 
     31 CB         20.8183  -27.8532  -36.9314 C.3       4 UNK        -0.1875 
     32 C          22.7597  -27.3597  -38.4700 C.2       4 UNK         0.4949 
     33 O          23.7901  -27.8574  -38.0172 O.2       4 UNK        -0.5039 
     34 N          22.7248  -26.1879  -39.1200 N.am      5 UNK        -0.4663 
     35 CA         23.9159  -25.4047  -39.4583 C.3       5 UNK         0.0242 
     36 CB         23.5050  -23.9487  -39.7205 C.3       5 UNK        -0.1982 
     37 C          24.7062  -25.9817  -40.6494 C.2       5 UNK         0.5017 
     38 O          25.9060  -25.7214  -40.7449 O.2       5 UNK        -0.5012 
     39 N          24.0408  -26.7525  -41.5225 N.am      6 UNK        -0.4439 
     40 CA         24.6690  -27.5109  -42.6086 C.3       6 UNK         0.0297 
     41 CB         23.7178  -27.5772  -43.8163 C.3       6 UNK        -0.2006 
     42 C          25.0546  -28.9267  -42.1461 C.2       6 UNK         0.4892 
     43 O          26.0913  -29.4355  -42.5743 O.2       6 UNK        -0.5089 
     44 N          24.2232  -29.5155  -41.2727 N.am      7 UNK        -0.4243 
     45 CA         24.3251  -30.8584  -40.6960 C.3       7 UNK         0.0196 
     46 CB         25.5982  -31.0014  -39.8307 C.3       7 UNK        -0.2007 
     47 C          24.1497  -31.9509  -41.7684 C.2       7 UNK         0.5020 
     48 O          23.3324  -31.7776  -42.6723 O.2       7 UNK        -0.5147 
     49 N          24.8640  -33.0763  -41.6271 N.am      8 UNK        -0.4734 
     50 CA         24.8726  -34.2781  -42.4809 C.3       8 UNK         0.0238 
     51 CB         25.2652  -33.9432  -43.9340 C.3       8 UNK        -0.1912 
     52 C          23.5846  -35.1242  -42.4380 C.2       8 UNK         0.5038 
     53 O          23.6855  -36.3519  -42.4433 O.2       8 UNK        -0.5046 
     54 N          22.4129  -34.4796  -42.3787 N.am      9 UNK        -0.4200 
     55 CA         21.0936  -35.1282  -42.2640 C.3       9 UNK         0.0839 
     56 C          20.8084  -35.7814  -40.8792 C.2       9 UNK         0.5513 
     57 N          21.5939  -35.5196  -39.8410 N.am      9 UNK        -0.7519 
     58 O          19.8550  -36.5444  -40.7472 O.2       9 UNK        -0.4960 
     59 C59        19.9327  -34.1792  -42.6650 C.3       10 UNK        -0.0876 
     60 S60        20.0991  -33.5312  -44.3636 S.3       10 UNK        -0.2414 
     61 C61        20.2686  -31.7453  -44.0631 C.3       10 UNK         0.0169 
     62 H62        17.0731  -22.0480  -48.7127 H         1 UNK         0.0903 
     63 H63        17.7649  -22.8654  -50.1169 H         1 UNK         0.0903 
     64 H64        16.4438  -23.6167  -49.2200 H         1 UNK         0.0903 
     65 H65        17.1306  -25.2611  -47.8520 H         1 UNK         0.3096 
     66 H66        19.8977  -25.6091  -47.1255 H         1 UNK         0.1121 
     67 H67        19.0154  -27.6433  -45.8927 H         1 UNK         0.0849 
     68 H68        18.6881  -27.6107  -47.5989 H         1 UNK         0.0849 
     69 H69        15.4922  -29.4680  -46.3877 H         1 UNK         0.0865 
     70 H70        17.0130  -29.5844  -47.2337 H         1 UNK         0.0865 
     71 H71        18.8711  -30.5970  -46.0921 H         1 UNK         0.1346 
     72 H72        18.6873  -31.3217  -41.8681 H         1 UNK         0.1412 
     73 H73        15.6015  -29.0504  -43.7930 H         1 UNK         0.1426 
     74 H74        16.0379  -30.8992  -40.9560 H         1 UNK         0.0716 
     75 H75        15.4987  -29.3146  -41.4546 H         1 UNK         0.0716 
     76 H76        17.2518  -27.3430  -41.6443 H         1 UNK         0.0695 
     77 H77        18.0034  -26.8083  -40.1730 H         1 UNK         0.0695 
     78 H78        19.3617  -28.6040  -42.2533 H         1 UNK         0.0983 
     79 H79        19.6204  -26.8565  -43.4970 H         1 UNK         0.3095 
     80 H80        19.6045  -23.5474  -43.2353 H         1 UNK         0.0454 
     81 H81        22.4559  -24.6496  -43.2191 H         1 UNK         0.0851 
     82 H82        21.9588  -23.2627  -44.1899 H         1 UNK         0.0851 
     83 H83        21.8415  -23.1925  -42.4477 H         1 UNK         0.0851 
     84 H84        20.8541  -25.4440  -45.1143 H         1 UNK         0.2976 
     85 H85        19.5116  -27.5659  -39.0251 H         1 UNK         0.3116 
     86 H86        21.6676  -29.1879  -38.3790 H         1 UNK         0.0646 
     87 H87        21.5309  -28.0801  -36.1369 H         1 UNK         0.0847 
     88 H88        19.9373  -28.4714  -36.7580 H         1 UNK         0.0847 
     89 H89        20.5256  -26.8087  -36.8172 H         1 UNK         0.0847 
     90 H90        21.8343  -25.8469  -39.4602 H         1 UNK         0.3040 
     91 H91        24.5902  -25.4112  -38.5985 H         1 UNK         0.1015 
     92 H92        23.0828  -23.4910  -38.8257 H         1 UNK         0.0786 
     93 H93        22.7603  -23.8807  -40.5107 H         1 UNK         0.0786 
     94 H94        24.3619  -23.3437  -40.0202 H         1 UNK         0.0786 
     95 H95        23.0713  -26.9795  -41.3257 H         1 UNK         0.3172 
     96 H96        25.5809  -27.0039  -42.9313 H         1 UNK         0.0595 
     97 H97        23.4995  -26.5834  -44.2049 H         1 UNK         0.0839 
     98 H98        22.7718  -28.0592  -43.5679 H         1 UNK         0.0839 
     99 H99        24.1662  -28.1486  -44.6302 H         1 UNK         0.0839 
    100 H100       23.3386  -29.0440  -41.0956 H         1 UNK         0.2998 
    101 H101       23.4657  -30.9548  -40.0309 H         1 UNK         0.0822 
    102 H102       25.6858  -30.1713  -39.1289 H         1 UNK         0.0787 
    103 H103       25.5756  -31.9147  -39.2353 H         1 UNK         0.0787 
    104 H104       26.5059  -31.0191  -40.4352 H         1 UNK         0.0787 
    105 H105       25.4833  -33.1218  -40.8292 H         1 UNK         0.3055 
    106 H106       25.6622  -34.9135  -42.0753 H         1 UNK         0.1106 
    107 H107       25.3931  -34.8539  -44.5206 H         1 UNK         0.0828 
    108 H108       24.5065  -33.3423  -44.4362 H         1 UNK         0.0828 
    109 H109       26.2072  -33.3965  -43.9748 H         1 UNK         0.0828 
    110 H110       22.4311  -33.4662  -42.4350 H         1 UNK         0.2931 
    111 H111       21.0894  -35.9525  -42.9801 H         1 UNK         0.0412 
    112 H112       21.3986  -35.9530  -38.9520 H         1 UNK         0.3472 
    113 H113       22.3814  -34.8996  -39.9388 H         1 UNK         0.3472 
    114 H114       19.8586  -33.3577  -41.9518 H         1 UNK         0.0970 
    115 H115       18.9766  -34.7039  -42.6148 H         1 UNK         0.0970 
    116 H116       20.8280  -31.5674  -43.1451 H         1 UNK         0.0612 
    117 H117       20.8682  -31.3137  -44.8659 H         1 UNK         0.0612 
@<TRIPOS>BOND
     1    1    2 1    
     2    1   62 1    
     3    1   63 1    
     4    1   64 1    
     5    2    3 2    
     6    2    4 am   BACKBONE|DICT|INTERRES
     7    4    5 1    
     8    4   65 1    
     9    5    6 1    
    10    5   25 1    
    11    5   66 1    
    12    6    7 1    
    13    6   67 1    
    14    6   68 1    
    15    7    8 1    
    16    8    9 1    
    17    8   69 1    
    18    8   70 1    
    19    9   10 ar   
    20    9   14 ar   
    21   10   11 ar   
    22   10   71 1    
    23   11   12 ar   
    24   11   61 1    
    25   12   13 ar   
    26   12   72 1    
    27   13   14 ar   
    28   13   15 1    
    29   14   73 1    
    30   15   16 1    
    31   15   74 1    
    32   15   75 1    
    33   16   17 1    
    34   17   18 1    
    35   17   76 1    
    36   17   77 1    
    37   18   19 1    
    38   18   27 1    
    39   18   78 1    
    40   19   20 am   BACKBONE|DICT|INTERRES
    41   19   79 1    
    42   20   21 2    
    43   20   22 1    
    44   22   23 1    
    45   22   24 1    
    46   22   80 1    
    47   23   81 1    
    48   23   82 1    
    49   23   83 1    
    50   24   25 am   BACKBONE|DICT|INTERRES
    51   24   84 1    
    52   25   26 2    
    53   27   28 2    
    54   27   29 am   BACKBONE|DICT|INTERRES
    55   29   30 1    
    56   29   85 1    
    57   30   31 1    
    58   30   32 1    
    59   30   86 1    
    60   31   87 1    
    61   31   88 1    
    62   31   89 1    
    63   32   33 2    
    64   32   34 am   BACKBONE|DICT|INTERRES
    65   34   35 1    
    66   34   90 1    
    67   35   36 1    
    68   35   37 1    
    69   35   91 1    
    70   36   92 1    
    71   36   93 1    
    72   36   94 1    
    73   37   38 2    
    74   37   39 am   BACKBONE|DICT|INTERRES
    75   39   40 1    
    76   39   95 1    
    77   40   41 1    
    78   40   42 1    
    79   40   96 1    
    80   41   97 1    
    81   41   98 1    
    82   41   99 1    
    83   42   43 2    
    84   42   44 am   BACKBONE|DICT|INTERRES
    85   44   45 1    
    86   44  100 1    
    87   45   46 1    
    88   45   47 1    
    89   45  101 1    
    90   46  102 1    
    91   46  103 1    
    92   46  104 1    
    93   47   48 2    
    94   47   49 am   BACKBONE|DICT|INTERRES
    95   49   50 1    
    96   49  105 1    
    97   50   51 1    
    98   50   52 1    
    99   50  106 1    
   100   51  107 1    
   101   51  108 1    
   102   51  109 1    
   103   52   53 2    
   104   52   54 am   BACKBONE|DICT|INTERRES
   105   54   55 1    
   106   54  110 1    
   107   55   56 1    
   108   55   59 1    
   109   55  111 1    
   110   56   57 am   BACKBONE|DICT|INTERRES
   111   56   58 2    
   112   57  112 1    
   113   57  113 1    
   114   59   60 1    
   115   59  114 1    
   116   59  115 1    
   117   60   61 1    
   118   61  116 1    
   119   61  117 1    
@<TRIPOS>SUBSTRUCTURE
     1 UNK         1 GROUP             0       ****    0 ROOT    
