@<TRIPOS>MOLECULE
3R8
117   119    1
SMALL
USER_CHARGES


@<TRIPOS>ATOM
      1 CA         16.5379  -23.8031  -39.4680 C.3       0 UNK        -0.2013 
      2 C          16.8495  -24.0319  -40.9392 C.2       0 UNK         0.4866 
      3 O          17.1907  -23.0847  -41.6479 O.2       0 UNK        -0.5176 
      4 N          16.7342  -25.2825  -41.4050 N.am      1 UNK        -0.4884 
      5 CA         17.0167  -25.6951  -42.7866 C.3       1 UNK         0.0853 
      6 C6         16.3769  -27.0677  -43.1126 C.3       10 UNK        -0.0849 
      7 S7         16.9213  -28.4162  -42.0017 S.3       10 UNK        -0.2776 
      8 C8         15.9205  -29.8114  -42.6176 C.3       10 UNK         0.0316 
      9 C9         16.6472  -30.7329  -43.5974 C.ar      10 UNK        -0.0863 
     10 C10        16.3510  -32.0993  -43.5821 C.ar      10 UNK        -0.1009 
     11 C11        16.9656  -32.9789  -44.4785 C.ar      10 UNK        -0.0712 
     12 C12        17.8847  -32.4819  -45.4063 C.ar      10 UNK        -0.0894 
     13 C13        18.1898  -31.1181  -45.4395 C.ar      10 UNK        -0.0745 
     14 C14        17.5674  -30.2505  -44.5365 C.ar      10 UNK        -0.0972 
     15 C15        19.1629  -30.5765  -46.4775 C.3       10 UNK         0.0209 
     16 S16        20.9036  -30.8768  -46.0329 S.3       10 UNK        -0.2568 
     17 C17        21.1492  -29.7275  -44.6379 C.3       10 UNK        -0.0983 
     18 CA         21.5102  -28.2850  -45.0870 C.3       3 UNK         0.0876 
     19 N          21.0337  -27.2739  -44.1362 N.am      3 UNK        -0.4424 
     20 C          21.4561  -27.0860  -42.8798 C.2       2 UNK         0.4918 
     21 O          22.3040  -27.7856  -42.3221 O.2       2 UNK        -0.4875 
     22 CA         20.8412  -25.9066  -42.1059 C.3       2 UNK         0.0481 
     23 CB         21.4425  -24.5661  -42.5728 C.3       2 UNK        -0.1831 
     24 N          19.3731  -25.8667  -42.1042 N.am      2 UNK        -0.4498 
     25 C          18.5227  -25.6810  -43.1267 C.2       1 UNK         0.5027 
     26 O          18.8762  -25.5179  -44.2962 O.2       1 UNK        -0.4969 
     27 C          23.0049  -28.0814  -45.4335 C.2       3 UNK         0.5005 
     28 O          23.7721  -29.0438  -45.4959 O.2       3 UNK        -0.5279 
     29 N          23.4016  -26.8083  -45.6028 N.am      4 UNK        -0.4463 
     30 CA         24.7469  -26.2779  -45.8873 C.3       4 UNK         0.0283 
     31 CB         25.2941  -26.8131  -47.2248 C.3       4 UNK        -0.1875 
     32 C          25.7768  -26.4695  -44.7562 C.2       4 UNK         0.4949 
     33 O          26.5655  -25.5599  -44.5019 O.2       4 UNK        -0.5039 
     34 N          25.7467  -27.6272  -44.0877 N.am      5 UNK        -0.4663 
     35 CA         26.6194  -27.9990  -42.9712 C.3       5 UNK         0.0242 
     36 CB         26.5490  -29.5245  -42.7877 C.3       5 UNK        -0.1982 
     37 C          26.2780  -27.2922  -41.6467 C.2       5 UNK         0.5017 
     38 O          27.0960  -27.3330  -40.7274 O.2       5 UNK        -0.5012 
     39 N          25.0781  -26.6952  -41.5636 N.am      6 UNK        -0.4439 
     40 CA         24.4561  -26.1073  -40.3688 C.3       6 UNK         0.0297 
     41 CB         25.2625  -24.9012  -39.8415 C.3       6 UNK        -0.2006 
     42 C          24.1677  -27.1737  -39.2942 C.2       6 UNK         0.4892 
     43 O          24.3882  -26.9343  -38.1054 O.2       6 UNK        -0.5089 
     44 N          23.6959  -28.3406  -39.7509 N.am      7 UNK        -0.4243 
     45 CA         23.4606  -29.5337  -38.9361 C.3       7 UNK         0.0196 
     46 CB         24.6632  -30.4810  -39.0906 C.3       7 UNK        -0.2007 
     47 C          22.1445  -30.2528  -39.2783 C.2       7 UNK         0.5020 
     48 O          21.8241  -31.2311  -38.6028 O.2       7 UNK        -0.5147 
     49 N          21.4090  -29.7792  -40.2981 N.am      8 UNK        -0.4734 
     50 CA         20.2027  -30.3967  -40.8683 C.3       8 UNK         0.0238 
     51 CB         19.0493  -30.4409  -39.8385 C.3       8 UNK        -0.1912 
     52 C          20.5170  -31.7573  -41.5278 C.2       8 UNK         0.5038 
     53 O          21.6230  -31.9315  -42.0447 O.2       8 UNK        -0.5046 
     54 N          19.5424  -32.6763  -41.5391 N.am      9 UNK        -0.4200 
     55 CA         19.6543  -34.0065  -42.1563 C.3       9 UNK         0.0839 
     56 C          20.7618  -34.8931  -41.5205 C.2       9 UNK         0.5513 
     57 N          21.4740  -35.6710  -42.3244 N.am      9 UNK        -0.7519 
     58 O          20.9401  -34.9196  -40.3045 O.2       9 UNK        -0.4960 
     59 C59        18.2848  -34.7460  -42.1765 C.3       10 UNK        -0.0876 
     60 S60        17.9655  -35.4993  -43.8080 S.3       10 UNK        -0.2414 
     61 C61        16.6145  -34.4615  -44.4553 C.3       10 UNK         0.0169 
     62 H62        16.2459  -24.7245  -38.9645 H         1 UNK         0.0903 
     63 H63        17.4122  -23.4002  -38.9577 H         1 UNK         0.0903 
     64 H64        15.7228  -23.0875  -39.3643 H         1 UNK         0.0903 
     65 H65        16.4438  -26.0264  -40.7846 H         1 UNK         0.3096 
     66 H66        16.5546  -24.9571  -43.4468 H         1 UNK         0.1121 
     67 H67        15.2920  -26.9810  -43.0322 H         1 UNK         0.0849 
     68 H68        16.5690  -27.3431  -44.1507 H         1 UNK         0.0849 
     69 H69        15.0084  -29.4411  -43.0872 H         1 UNK         0.0865 
     70 H70        15.5990  -30.3848  -41.7468 H         1 UNK         0.0865 
     71 H71        15.6298  -32.4819  -42.8725 H         1 UNK         0.1346 
     72 H72        18.3608  -33.1572  -46.1042 H         1 UNK         0.1412 
     73 H73        17.8034  -29.1976  -44.5746 H         1 UNK         0.1426 
     74 H74        19.0055  -29.5084  -46.6341 H         1 UNK         0.0716 
     75 H75        18.9629  -31.0532  -47.4382 H         1 UNK         0.0716 
     76 H76        21.9153  -30.1326  -43.9751 H         1 UNK         0.0695 
     77 H77        20.2349  -29.7218  -44.0467 H         1 UNK         0.0695 
     78 H78        20.9683  -28.0758  -46.0104 H         1 UNK         0.0983 
     79 H79        20.3043  -26.6460  -44.4695 H         1 UNK         0.3095 
     80 H80        21.1233  -26.0431  -41.0610 H         1 UNK         0.0454 
     81 H81        21.1127  -23.7454  -41.9358 H         1 UNK         0.0851 
     82 H82        21.1625  -24.3220  -43.5976 H         1 UNK         0.0851 
     83 H83        22.5321  -24.5847  -42.5363 H         1 UNK         0.0851 
     84 H84        18.9449  -26.0220  -41.2021 H         1 UNK         0.2976 
     85 H85        22.6888  -26.0995  -45.4964 H         1 UNK         0.3116 
     86 H86        24.6146  -25.2006  -46.0009 H         1 UNK         0.0646 
     87 H87        26.2416  -26.3345  -47.4758 H         1 UNK         0.0847 
     88 H88        24.6040  -26.6137  -48.0444 H         1 UNK         0.0847 
     89 H89        25.4757  -27.8877  -47.1928 H         1 UNK         0.0847 
     90 H90        25.0794  -28.3254  -44.4119 H         1 UNK         0.3040 
     91 H91        27.6450  -27.7260  -43.2292 H         1 UNK         0.1015 
     92 H92        26.8657  -30.0474  -43.6903 H         1 UNK         0.0786 
     93 H93        25.5373  -29.8544  -42.5471 H         1 UNK         0.0786 
     94 H94        27.2014  -29.8544  -41.9778 H         1 UNK         0.0786 
     95 H95        24.4809  -26.7713  -42.3757 H         1 UNK         0.3172 
     96 H96        23.4844  -25.7290  -40.6812 H         1 UNK         0.0595 
     97 H97        26.2263  -25.2020  -39.4301 H         1 UNK         0.0839 
     98 H98        24.7194  -24.3888  -39.0464 H         1 UNK         0.0839 
     99 H99        25.4465  -24.1716  -40.6300 H         1 UNK         0.0839 
    100 H100       23.5236  -28.4225  -40.7464 H         1 UNK         0.2998 
    101 H101       23.3799  -29.2498  -37.8856 H         1 UNK         0.0822 
    102 H102       24.7770  -30.8184  -40.1204 H         1 UNK         0.0787 
    103 H103       25.5915  -29.9935  -38.7939 H         1 UNK         0.0787 
    104 H104       24.5490  -31.3680  -38.4664 H         1 UNK         0.0787 
    105 H105       21.7717  -28.9970  -40.8302 H         1 UNK         0.3055 
    106 H106       19.8850  -29.7402  -41.6794 H         1 UNK         0.1106 
    107 H107       18.1024  -30.6998  -40.3128 H         1 UNK         0.0828 
    108 H108       19.2305  -31.1683  -39.0467 H         1 UNK         0.0828 
    109 H109       18.9068  -29.4677  -39.3689 H         1 UNK         0.0828 
    110 H110       18.6737  -32.4672  -41.0732 H         1 UNK         0.2931 
    111 H111       19.9565  -33.8005  -43.1862 H         1 UNK         0.0412 
    112 H112       21.3102  -35.6730  -43.3197 H         1 UNK         0.3472 
    113 H113       22.1842  -36.2687  -41.9308 H         1 UNK         0.3472 
    114 H114       18.2281  -35.5275  -41.4157 H         1 UNK         0.0970 
    115 H115       17.4644  -34.0712  -41.9338 H         1 UNK         0.0970 
    116 H116       16.3739  -34.7898  -45.4673 H         1 UNK         0.0612 
    117 H117       15.7188  -34.6372  -43.8577 H         1 UNK         0.0612 
@<TRIPOS>BOND
     1    1    2 1    
     2    1   62 1    
     3    1   63 1    
     4    1   64 1    
     5    2    3 2    
     6    2    4 am   BACKBONE|DICT|INTERRES
     7    4    5 1    
     8    4   65 1    
     9    5    6 1    
    10    5   25 1    
    11    5   66 1    
    12    6    7 1    
    13    6   67 1    
    14    6   68 1    
    15    7    8 1    
    16    8    9 1    
    17    8   69 1    
    18    8   70 1    
    19    9   10 ar   
    20    9   14 ar   
    21   10   11 ar   
    22   10   71 1    
    23   11   12 ar   
    24   11   61 1    
    25   12   13 ar   
    26   12   72 1    
    27   13   14 ar   
    28   13   15 1    
    29   14   73 1    
    30   15   16 1    
    31   15   74 1    
    32   15   75 1    
    33   16   17 1    
    34   17   18 1    
    35   17   76 1    
    36   17   77 1    
    37   18   19 1    
    38   18   27 1    
    39   18   78 1    
    40   19   20 am   BACKBONE|DICT|INTERRES
    41   19   79 1    
    42   20   21 2    
    43   20   22 1    
    44   22   23 1    
    45   22   24 1    
    46   22   80 1    
    47   23   81 1    
    48   23   82 1    
    49   23   83 1    
    50   24   25 am   BACKBONE|DICT|INTERRES
    51   24   84 1    
    52   25   26 2    
    53   27   28 2    
    54   27   29 am   BACKBONE|DICT|INTERRES
    55   29   30 1    
    56   29   85 1    
    57   30   31 1    
    58   30   32 1    
    59   30   86 1    
    60   31   87 1    
    61   31   88 1    
    62   31   89 1    
    63   32   33 2    
    64   32   34 am   BACKBONE|DICT|INTERRES
    65   34   35 1    
    66   34   90 1    
    67   35   36 1    
    68   35   37 1    
    69   35   91 1    
    70   36   92 1    
    71   36   93 1    
    72   36   94 1    
    73   37   38 2    
    74   37   39 am   BACKBONE|DICT|INTERRES
    75   39   40 1    
    76   39   95 1    
    77   40   41 1    
    78   40   42 1    
    79   40   96 1    
    80   41   97 1    
    81   41   98 1    
    82   41   99 1    
    83   42   43 2    
    84   42   44 am   BACKBONE|DICT|INTERRES
    85   44   45 1    
    86   44  100 1    
    87   45   46 1    
    88   45   47 1    
    89   45  101 1    
    90   46  102 1    
    91   46  103 1    
    92   46  104 1    
    93   47   48 2    
    94   47   49 am   BACKBONE|DICT|INTERRES
    95   49   50 1    
    96   49  105 1    
    97   50   51 1    
    98   50   52 1    
    99   50  106 1    
   100   51  107 1    
   101   51  108 1    
   102   51  109 1    
   103   52   53 2    
   104   52   54 am   BACKBONE|DICT|INTERRES
   105   54   55 1    
   106   54  110 1    
   107   55   56 1    
   108   55   59 1    
   109   55  111 1    
   110   56   57 am   BACKBONE|DICT|INTERRES
   111   56   58 2    
   112   57  112 1    
   113   57  113 1    
   114   59   60 1    
   115   59  114 1    
   116   59  115 1    
   117   60   61 1    
   118   61  116 1    
   119   61  117 1    
@<TRIPOS>SUBSTRUCTURE
     1 UNK         1 GROUP             0       ****    0 ROOT    
