@<TRIPOS>MOLECULE
3R8
117   119    1
SMALL
USER_CHARGES


@<TRIPOS>ATOM
      1 CA         16.5846  -23.0820  -47.5716 C.3       0 UNK        -0.2013 
      2 C          17.2655  -24.1940  -46.7887 C.2       0 UNK         0.4866 
      3 O          18.4447  -24.4658  -47.0096 O.2       0 UNK        -0.5176 
      4 N          16.5413  -24.8242  -45.8547 N.am      1 UNK        -0.4884 
      5 CA         16.9890  -25.9710  -45.0461 C.3       1 UNK         0.0853 
      6 C6         15.7944  -26.8461  -44.5850 C.3       10 UNK        -0.0849 
      7 S7         15.0069  -27.6525  -46.0256 S.3       10 UNK        -0.2776 
      8 C8         15.2131  -29.4395  -45.6924 C.3       10 UNK         0.0316 
      9 C9         16.6218  -29.8486  -45.2667 C.ar      10 UNK        -0.0863 
     10 C10        16.7950  -30.6210  -44.1153 C.ar      10 UNK        -0.1009 
     11 C11        18.0675  -31.0088  -43.6866 C.ar      10 UNK        -0.0712 
     12 C12        19.1848  -30.5947  -44.4258 C.ar      10 UNK        -0.0894 
     13 C13        19.0323  -29.8118  -45.5758 C.ar      10 UNK        -0.0745 
     14 C14        17.7454  -29.4681  -46.0061 C.ar      10 UNK        -0.0972 
     15 C15        20.2581  -29.3383  -46.3501 C.3       10 UNK         0.0209 
     16 S16        20.2764  -27.5231  -46.5360 S.3       10 UNK        -0.2568 
     17 C17        21.9571  -27.0530  -45.9922 C.3       10 UNK        -0.0983 
     18 CA         22.0269  -26.5180  -44.5375 C.3       3 UNK         0.0876 
     19 N          21.0291  -25.4745  -44.2861 N.am      3 UNK        -0.4424 
     20 C          20.8892  -24.7483  -43.1673 C.2       2 UNK         0.4918 
     21 O          21.6914  -24.7696  -42.2332 O.2       2 UNK        -0.4875 
     22 CA         19.5979  -23.9119  -43.0421 C.3       2 UNK         0.0481 
     23 CB         19.8874  -22.4320  -43.3353 C.3       2 UNK        -0.1831 
     24 N          18.5102  -24.3744  -43.9160 N.am      2 UNK        -0.4498 
     25 C          17.9437  -25.5916  -43.8887 C.2       1 UNK         0.5027 
     26 O          18.2125  -26.4260  -43.0243 O.2       1 UNK        -0.4969 
     27 C          22.0014  -27.6770  -43.5171 C.2       3 UNK         0.5005 
     28 O          23.0063  -28.3787  -43.4120 O.2       3 UNK        -0.5279 
     29 N          20.9079  -27.8471  -42.7551 N.am      4 UNK        -0.4463 
     30 CA         20.7628  -28.8440  -41.6883 C.3       4 UNK         0.0283 
     31 CB         19.3774  -28.7028  -41.0414 C.3       4 UNK        -0.1875 
     32 C          21.8558  -28.7980  -40.6079 C.2       4 UNK         0.4949 
     33 O          22.2128  -29.8472  -40.0711 O.2       4 UNK        -0.5039 
     34 N          22.3861  -27.5981  -40.3333 N.am      5 UNK        -0.4663 
     35 CA         23.5018  -27.3793  -39.4109 C.3       5 UNK         0.0242 
     36 CB         23.5601  -25.8890  -39.0400 C.3       5 UNK        -0.1982 
     37 C          24.8557  -27.8460  -39.9761 C.2       5 UNK         0.5017 
     38 O          25.7224  -28.2439  -39.1979 O.2       5 UNK        -0.5012 
     39 N          25.0154  -27.7906  -41.3059 N.am      6 UNK        -0.4439 
     40 CA         26.2135  -28.2366  -42.0208 C.3       6 UNK         0.0297 
     41 CB         26.3726  -27.4279  -43.3191 C.3       6 UNK        -0.2006 
     42 C          26.1547  -29.7418  -42.3194 C.2       6 UNK         0.4892 
     43 O          27.1639  -30.4305  -42.1678 O.2       6 UNK        -0.5089 
     44 N          24.9685  -30.2241  -42.7163 N.am      7 UNK        -0.4243 
     45 CA         24.6625  -31.6360  -42.9545 C.3       7 UNK         0.0196 
     46 CB         23.3092  -31.7344  -43.6778 C.3       7 UNK        -0.2007 
     47 C          24.6411  -32.4780  -41.6664 C.2       7 UNK         0.5020 
     48 O          24.8475  -33.6892  -41.7436 O.2       7 UNK        -0.5147 
     49 N          24.3919  -31.8229  -40.5218 N.am      8 UNK        -0.4734 
     50 CA         24.2602  -32.3838  -39.1735 C.3       8 UNK         0.0238 
     51 CB         25.5958  -32.9885  -38.6894 C.3       8 UNK        -0.1912 
     52 C          23.0739  -33.3593  -39.0800 C.2       8 UNK         0.5038 
     53 O          23.2433  -34.5024  -38.6494 O.2       8 UNK        -0.5046 
     54 N          21.8990  -32.8852  -39.5160 N.am      9 UNK        -0.4200 
     55 CA         20.6283  -33.6260  -39.4958 C.3       9 UNK         0.0839 
     56 C          20.1948  -34.0410  -38.0620 C.2       9 UNK         0.5513 
     57 N          19.6141  -35.2229  -37.9074 N.am      9 UNK        -0.7519 
     58 O          20.3356  -33.2831  -37.1041 O.2       9 UNK        -0.4960 
     59 C59        19.4906  -32.8273  -40.1786 C.3       10 UNK        -0.0876 
     60 S60        19.8093  -32.4566  -41.9350 S.3       10 UNK        -0.2414 
     61 C61        18.1567  -31.8355  -42.4010 C.3       10 UNK         0.0169 
     62 H62        15.5492  -22.9398  -47.2627 H         1 UNK         0.0903 
     63 H63        17.1148  -22.1411  -47.4266 H         1 UNK         0.0903 
     64 H64        16.5914  -23.3162  -48.6358 H         1 UNK         0.0903 
     65 H65        15.5802  -24.5470  -45.7100 H         1 UNK         0.3096 
     66 H66        17.6039  -26.5975  -45.6946 H         1 UNK         0.1121 
     67 H67        15.0516  -26.2413  -44.0625 H         1 UNK         0.0849 
     68 H68        16.1071  -27.6120  -43.8736 H         1 UNK         0.0849 
     69 H69        14.4857  -29.7248  -44.9307 H         1 UNK         0.0865 
     70 H70        14.9437  -29.9963  -46.5908 H         1 UNK         0.0865 
     71 H71        15.9298  -30.9224  -43.5400 H         1 UNK         0.1346 
     72 H72        20.1803  -30.8677  -44.1100 H         1 UNK         0.1412 
     73 H73        17.6204  -28.8733  -46.9008 H         1 UNK         0.1426 
     74 H74        21.1724  -29.6718  -45.8570 H         1 UNK         0.0716 
     75 H75        20.2565  -29.7967  -47.3397 H         1 UNK         0.0716 
     76 H76        22.2969  -26.2679  -46.6693 H         1 UNK         0.0695 
     77 H77        22.6515  -27.8810  -46.1493 H         1 UNK         0.0695 
     78 H78        23.0027  -26.0438  -44.4120 H         1 UNK         0.0983 
     79 H79        20.3210  -25.3826  -45.0016 H         1 UNK         0.3095 
     80 H80        19.2524  -23.9978  -42.0101 H         1 UNK         0.0454 
     81 H81        19.0055  -21.8135  -43.1684 H         1 UNK         0.0851 
     82 H82        20.2157  -22.2803  -44.3644 H         1 UNK         0.0851 
     83 H83        20.6748  -22.0517  -42.6828 H         1 UNK         0.0851 
     84 H84        18.2524  -23.7656  -44.6801 H         1 UNK         0.2976 
     85 H85        20.1026  -27.2512  -42.9182 H         1 UNK         0.3116 
     86 H86        20.8300  -29.8218  -42.1593 H         1 UNK         0.0646 
     87 H87        18.5824  -28.8377  -41.7744 H         1 UNK         0.0847 
     88 H88        19.2298  -29.4504  -40.2614 H         1 UNK         0.0847 
     89 H89        19.2442  -27.7215  -40.5846 H         1 UNK         0.0847 
     90 H90        22.0296  -26.7883  -40.8248 H         1 UNK         0.3040 
     91 H91        23.3125  -27.9527  -38.5003 H         1 UNK         0.1015 
     92 H92        23.7218  -25.2602  -39.9169 H         1 UNK         0.0786 
     93 H93        24.3740  -25.6913  -38.3409 H         1 UNK         0.0786 
     94 H94        22.6366  -25.5636  -38.5606 H         1 UNK         0.0786 
     95 H95        24.2201  -27.5300  -41.8752 H         1 UNK         0.3172 
     96 H96        27.0925  -28.0491  -41.4001 H         1 UNK         0.0595 
     97 H97        25.5335  -27.5756  -43.9998 H         1 UNK         0.0839 
     98 H98        27.2776  -27.7238  -43.8515 H         1 UNK         0.0839 
     99 H99        26.4535  -26.3605  -43.1134 H         1 UNK         0.0839 
    100 H100       24.2095  -29.5635  -42.8819 H         1 UNK         0.2998 
    101 H101       25.4365  -32.0463  -43.6065 H         1 UNK         0.0822 
    102 H102       23.0562  -32.7721  -43.8993 H         1 UNK         0.0787 
    103 H103       22.5025  -31.3250  -43.0696 H         1 UNK         0.0787 
    104 H104       23.3225  -31.1922  -44.6235 H         1 UNK         0.0787 
    105 H105       24.1601  -30.8403  -40.5971 H         1 UNK         0.3055 
    106 H106       24.0203  -31.5482  -38.5133 H         1 UNK         0.1106 
    107 H107       26.4046  -32.2604  -38.7507 H         1 UNK         0.0828 
    108 H108       25.5235  -33.3064  -37.6486 H         1 UNK         0.0828 
    109 H109       25.8854  -33.8617  -39.2745 H         1 UNK         0.0828 
    110 H110       21.8582  -31.9263  -39.8418 H         1 UNK         0.2931 
    111 H111       20.7915  -34.5384  -40.0733 H         1 UNK         0.0412 
    112 H112       19.4859  -35.8471  -38.6893 H         1 UNK         0.3472 
    113 H113       19.3099  -35.5039  -36.9880 H         1 UNK         0.3472 
    114 H114       18.5542  -33.3866  -40.1223 H         1 UNK         0.0970 
    115 H115       19.3171  -31.8881  -39.6500 H         1 UNK         0.0970 
    116 H116       17.4876  -32.6933  -42.4839 H         1 UNK         0.0612 
    117 H117       17.7722  -31.2233  -41.5843 H         1 UNK         0.0612 
@<TRIPOS>BOND
     1    1    2 1    
     2    1   62 1    
     3    1   63 1    
     4    1   64 1    
     5    2    3 2    
     6    2    4 am   BACKBONE|DICT|INTERRES
     7    4    5 1    
     8    4   65 1    
     9    5    6 1    
    10    5   25 1    
    11    5   66 1    
    12    6    7 1    
    13    6   67 1    
    14    6   68 1    
    15    7    8 1    
    16    8    9 1    
    17    8   69 1    
    18    8   70 1    
    19    9   10 ar   
    20    9   14 ar   
    21   10   11 ar   
    22   10   71 1    
    23   11   12 ar   
    24   11   61 1    
    25   12   13 ar   
    26   12   72 1    
    27   13   14 ar   
    28   13   15 1    
    29   14   73 1    
    30   15   16 1    
    31   15   74 1    
    32   15   75 1    
    33   16   17 1    
    34   17   18 1    
    35   17   76 1    
    36   17   77 1    
    37   18   19 1    
    38   18   27 1    
    39   18   78 1    
    40   19   20 am   BACKBONE|DICT|INTERRES
    41   19   79 1    
    42   20   21 2    
    43   20   22 1    
    44   22   23 1    
    45   22   24 1    
    46   22   80 1    
    47   23   81 1    
    48   23   82 1    
    49   23   83 1    
    50   24   25 am   BACKBONE|DICT|INTERRES
    51   24   84 1    
    52   25   26 2    
    53   27   28 2    
    54   27   29 am   BACKBONE|DICT|INTERRES
    55   29   30 1    
    56   29   85 1    
    57   30   31 1    
    58   30   32 1    
    59   30   86 1    
    60   31   87 1    
    61   31   88 1    
    62   31   89 1    
    63   32   33 2    
    64   32   34 am   BACKBONE|DICT|INTERRES
    65   34   35 1    
    66   34   90 1    
    67   35   36 1    
    68   35   37 1    
    69   35   91 1    
    70   36   92 1    
    71   36   93 1    
    72   36   94 1    
    73   37   38 2    
    74   37   39 am   BACKBONE|DICT|INTERRES
    75   39   40 1    
    76   39   95 1    
    77   40   41 1    
    78   40   42 1    
    79   40   96 1    
    80   41   97 1    
    81   41   98 1    
    82   41   99 1    
    83   42   43 2    
    84   42   44 am   BACKBONE|DICT|INTERRES
    85   44   45 1    
    86   44  100 1    
    87   45   46 1    
    88   45   47 1    
    89   45  101 1    
    90   46  102 1    
    91   46  103 1    
    92   46  104 1    
    93   47   48 2    
    94   47   49 am   BACKBONE|DICT|INTERRES
    95   49   50 1    
    96   49  105 1    
    97   50   51 1    
    98   50   52 1    
    99   50  106 1    
   100   51  107 1    
   101   51  108 1    
   102   51  109 1    
   103   52   53 2    
   104   52   54 am   BACKBONE|DICT|INTERRES
   105   54   55 1    
   106   54  110 1    
   107   55   56 1    
   108   55   59 1    
   109   55  111 1    
   110   56   57 am   BACKBONE|DICT|INTERRES
   111   56   58 2    
   112   57  112 1    
   113   57  113 1    
   114   59   60 1    
   115   59  114 1    
   116   59  115 1    
   117   60   61 1    
   118   61  116 1    
   119   61  117 1    
@<TRIPOS>SUBSTRUCTURE
     1 UNK         1 GROUP             0       ****    0 ROOT    
