@<TRIPOS>MOLECULE
3R8
117   119    1
SMALL
USER_CHARGES


@<TRIPOS>ATOM
      1 CA         13.8358  -24.1391  -45.2077 C.3       0 UNK        -0.2013 
      2 C          14.7486  -25.3534  -45.1213 C.2       0 UNK         0.4866 
      3 O          14.9009  -26.0712  -46.1103 O.2       0 UNK        -0.5176 
      4 N          15.3480  -25.5834  -43.9477 N.am      1 UNK        -0.4884 
      5 CA         16.2959  -26.6697  -43.6807 C.3       1 UNK         0.0853 
      6 C6         15.8240  -27.5762  -42.5074 C.3       10 UNK        -0.0849 
      7 S7         14.2467  -28.4614  -42.7681 S.3       10 UNK        -0.2776 
      8 C8         14.4371  -29.3256  -44.3715 C.3       10 UNK         0.0316 
      9 C9         15.8263  -29.9044  -44.6343 C.ar      10 UNK        -0.0863 
     10 C10        16.4683  -30.7212  -43.6978 C.ar      10 UNK        -0.1009 
     11 C11        17.7630  -31.2060  -43.9359 C.ar      10 UNK        -0.0712 
     12 C12        18.3907  -30.8996  -45.1491 C.ar      10 UNK        -0.0894 
     13 C13        17.7434  -30.1165  -46.1094 C.ar      10 UNK        -0.0745 
     14 C14        16.4664  -29.6208  -45.8432 C.ar      10 UNK        -0.0972 
     15 C15        18.3923  -29.8240  -47.4537 C.3       10 UNK         0.0209 
     16 S16        19.1901  -28.1889  -47.4793 S.3       10 UNK        -0.2568 
     17 C17        20.8786  -28.6018  -46.9347 C.3       10 UNK        -0.0983 
     18 CA         21.4609  -27.5498  -45.9618 C.3       3 UNK         0.0876 
     19 N          20.6883  -27.4429  -44.7193 N.am      3 UNK        -0.4424 
     20 C          20.8677  -26.4950  -43.7876 C.2       2 UNK         0.4918 
     21 O          21.6709  -25.5679  -43.8967 O.2       2 UNK        -0.4875 
     22 CA         19.9994  -26.6211  -42.5238 C.3       2 UNK         0.0481 
     23 CB         20.1404  -25.4182  -41.5661 C.3       2 UNK        -0.1831 
     24 N          18.5927  -26.8994  -42.8382 N.am      2 UNK        -0.4498 
     25 C          17.7124  -26.0936  -43.4550 C.2       1 UNK         0.5027 
     26 O          17.9824  -24.9547  -43.8448 O.2       1 UNK        -0.4969 
     27 C          22.9458  -27.8483  -45.6776 C.2       3 UNK         0.5005 
     28 O          23.8188  -27.1569  -46.2052 O.2       3 UNK        -0.5279 
     29 N          23.1967  -28.8614  -44.8357 N.am      4 UNK        -0.4463 
     30 CA         24.5317  -29.2029  -44.3429 C.3       4 UNK         0.0283 
     31 CB         24.6026  -30.7058  -44.0376 C.3       4 UNK        -0.1875 
     32 C          24.8917  -28.3762  -43.1000 C.2       4 UNK         0.4949 
     33 O          26.0365  -27.9408  -42.9745 O.2       4 UNK        -0.5039 
     34 N          23.9087  -28.1857  -42.2067 N.am      5 UNK        -0.4663 
     35 CA         23.9312  -27.4317  -40.9475 C.3       5 UNK         0.0242 
     36 CB         24.2790  -25.9466  -41.1718 C.3       5 UNK        -0.1982 
     37 C          24.8191  -28.0689  -39.8676 C.2       5 UNK         0.5017 
     38 O          24.3213  -28.3998  -38.7921 O.2       5 UNK        -0.5012 
     39 N          26.1099  -28.2401  -40.1733 N.am      6 UNK        -0.4439 
     40 CA         27.1013  -28.8519  -39.2895 C.3       6 UNK         0.0297 
     41 CB         28.5157  -28.5276  -39.7972 C.3       6 UNK        -0.2006 
     42 C          26.9035  -30.3694  -39.1531 C.2       6 UNK         0.4892 
     43 O          26.9793  -30.8893  -38.0393 O.2       6 UNK        -0.5089 
     44 N          26.6614  -31.0470  -40.2844 N.am      7 UNK        -0.4243 
     45 CA         26.4949  -32.5011  -40.3407 C.3       7 UNK         0.0196 
     46 CB         27.0476  -33.0336  -41.6728 C.3       7 UNK        -0.2007 
     47 C          25.0387  -32.9518  -40.1468 C.2       7 UNK         0.5020 
     48 O          24.8289  -34.0732  -39.6829 O.2       7 UNK        -0.5147 
     49 N          24.0605  -32.1073  -40.5043 N.am      8 UNK        -0.4734 
     50 CA         22.6361  -32.4297  -40.4214 C.3       8 UNK         0.0238 
     51 CB         22.2239  -33.3586  -41.5810 C.3       8 UNK        -0.1912 
     52 C          21.7875  -31.1559  -40.4500 C.2       8 UNK         0.5038 
     53 O          22.0625  -30.2578  -41.2503 O.2       8 UNK        -0.5046 
     54 N          20.7380  -31.1497  -39.6199 N.am      9 UNK        -0.4200 
     55 CA         19.6431  -30.1653  -39.5760 C.3       9 UNK         0.0839 
     56 C          20.0295  -28.7251  -39.1280 C.2       9 UNK         0.5513 
     57 N          21.2210  -28.4874  -38.5993 N.am      9 UNK        -0.7519 
     58 O          19.2151  -27.8115  -39.2210 O.2       9 UNK        -0.4960 
     59 C59        18.7714  -30.1786  -40.8633 C.3       10 UNK        -0.0876 
     60 S60        18.0425  -31.8210  -41.1848 S.3       10 UNK        -0.2414 
     61 C61        18.4931  -32.0999  -42.9314 C.3       10 UNK         0.0169 
     62 H62        12.8261  -24.4479  -45.4773 H         1 UNK         0.0903 
     63 H63        13.7836  -23.5986  -44.2627 H         1 UNK         0.0903 
     64 H64        14.1977  -23.4518  -45.9719 H         1 UNK         0.0903 
     65 H65        15.2209  -24.9272  -43.1898 H         1 UNK         0.3096 
     66 H66        16.4034  -27.2810  -44.5738 H         1 UNK         0.1121 
     67 H67        15.7261  -26.9850  -41.5949 H         1 UNK         0.0849 
     68 H68        16.5561  -28.3484  -42.2790 H         1 UNK         0.0849 
     69 H69        13.7065  -30.1339  -44.4208 H         1 UNK         0.0865 
     70 H70        14.1615  -28.6248  -45.1612 H         1 UNK         0.0865 
     71 H71        15.9564  -30.9618  -42.7765 H         1 UNK         0.1346 
     72 H72        19.3776  -31.2906  -45.3561 H         1 UNK         0.1412 
     73 H73        15.9723  -29.0048  -46.5833 H         1 UNK         0.1426 
     74 H74        19.1105  -30.6016  -47.7184 H         1 UNK         0.0716 
     75 H75        17.6299  -29.8474  -48.2340 H         1 UNK         0.0716 
     76 H76        21.4973  -28.6785  -47.8312 H         1 UNK         0.0695 
     77 H77        20.8857  -29.5914  -46.4748 H         1 UNK         0.0695 
     78 H78        21.4203  -26.5754  -46.4546 H         1 UNK         0.0983 
     79 H79        19.9688  -28.1360  -44.5803 H         1 UNK         0.3095 
     80 H80        20.3708  -27.4984  -41.9924 H         1 UNK         0.0454 
     81 H81        19.5038  -25.5308  -40.6890 H         1 UNK         0.0851 
     82 H82        21.1662  -25.3246  -41.2091 H         1 UNK         0.0851 
     83 H83        19.8802  -24.4766  -42.0500 H         1 UNK         0.0851 
     84 H84        18.2675  -27.8138  -42.5629 H         1 UNK         0.2976 
     85 H85        22.4181  -29.3789  -44.4550 H         1 UNK         0.3116 
     86 H86        25.2710  -28.9856  -45.1172 H         1 UNK         0.0646 
     87 H87        24.3705  -31.3016  -44.9205 H         1 UNK         0.0847 
     88 H88        25.6087  -30.9788  -43.7225 H         1 UNK         0.0847 
     89 H89        23.9135  -30.9987  -43.2454 H         1 UNK         0.0847 
     90 H90        23.0518  -28.7080  -42.3460 H         1 UNK         0.3040 
     91 H91        22.9079  -27.4687  -40.5712 H         1 UNK         0.1015 
     92 H92        25.2995  -25.8092  -41.5298 H         1 UNK         0.0786 
     93 H93        24.1833  -25.3821  -40.2435 H         1 UNK         0.0786 
     94 H94        23.6090  -25.4896  -41.8997 H         1 UNK         0.0786 
     95 H95        26.4009  -27.9789  -41.1127 H         1 UNK         0.3172 
     96 H96        26.9907  -28.4101  -38.2967 H         1 UNK         0.0595 
     97 H97        28.6856  -28.9106  -40.8043 H         1 UNK         0.0839 
     98 H98        29.2735  -28.9688  -39.1482 H         1 UNK         0.0839 
     99 H99        28.6929  -27.4521  -39.8144 H         1 UNK         0.0839 
    100 H100       26.6301  -30.5403  -41.1566 H         1 UNK         0.2998 
    101 H101       27.0834  -32.9571  -39.5410 H         1 UNK         0.0822 
    102 H102       27.0321  -34.1243  -41.6877 H         1 UNK         0.0787 
    103 H103       28.0815  -32.7245  -41.8284 H         1 UNK         0.0787 
    104 H104       26.4605  -32.6949  -42.5247 H         1 UNK         0.0787 
    105 H105       24.2816  -31.1773  -40.8315 H         1 UNK         0.3055 
    106 H106       22.4547  -32.9453  -39.4752 H         1 UNK         0.1106 
    107 H107       21.1588  -33.5906  -41.5365 H         1 UNK         0.0828 
    108 H108       22.4166  -32.9011  -42.5519 H         1 UNK         0.0828 
    109 H109       22.7588  -34.3076  -41.5469 H         1 UNK         0.0828 
    110 H110       20.6165  -31.9353  -38.9977 H         1 UNK         0.2931 
    111 H111       19.0019  -30.5156  -38.7661 H         1 UNK         0.0412 
    112 H112       21.4424  -27.5559  -38.2873 H         1 UNK         0.3472 
    113 H113       21.9149  -29.2147  -38.5273 H         1 UNK         0.3472 
    114 H114       17.9407  -29.4791  -40.7669 H         1 UNK         0.0970 
    115 H115       19.3560  -29.8507  -41.7237 H         1 UNK         0.0970 
    116 H116       19.5732  -31.9792  -43.0311 H         1 UNK         0.0612 
    117 H117       18.2744  -33.1393  -43.1788 H         1 UNK         0.0612 
@<TRIPOS>BOND
     1    1    2 1    
     2    1   62 1    
     3    1   63 1    
     4    1   64 1    
     5    2    3 2    
     6    2    4 am   BACKBONE|DICT|INTERRES
     7    4    5 1    
     8    4   65 1    
     9    5    6 1    
    10    5   25 1    
    11    5   66 1    
    12    6    7 1    
    13    6   67 1    
    14    6   68 1    
    15    7    8 1    
    16    8    9 1    
    17    8   69 1    
    18    8   70 1    
    19    9   10 ar   
    20    9   14 ar   
    21   10   11 ar   
    22   10   71 1    
    23   11   12 ar   
    24   11   61 1    
    25   12   13 ar   
    26   12   72 1    
    27   13   14 ar   
    28   13   15 1    
    29   14   73 1    
    30   15   16 1    
    31   15   74 1    
    32   15   75 1    
    33   16   17 1    
    34   17   18 1    
    35   17   76 1    
    36   17   77 1    
    37   18   19 1    
    38   18   27 1    
    39   18   78 1    
    40   19   20 am   BACKBONE|DICT|INTERRES
    41   19   79 1    
    42   20   21 2    
    43   20   22 1    
    44   22   23 1    
    45   22   24 1    
    46   22   80 1    
    47   23   81 1    
    48   23   82 1    
    49   23   83 1    
    50   24   25 am   BACKBONE|DICT|INTERRES
    51   24   84 1    
    52   25   26 2    
    53   27   28 2    
    54   27   29 am   BACKBONE|DICT|INTERRES
    55   29   30 1    
    56   29   85 1    
    57   30   31 1    
    58   30   32 1    
    59   30   86 1    
    60   31   87 1    
    61   31   88 1    
    62   31   89 1    
    63   32   33 2    
    64   32   34 am   BACKBONE|DICT|INTERRES
    65   34   35 1    
    66   34   90 1    
    67   35   36 1    
    68   35   37 1    
    69   35   91 1    
    70   36   92 1    
    71   36   93 1    
    72   36   94 1    
    73   37   38 2    
    74   37   39 am   BACKBONE|DICT|INTERRES
    75   39   40 1    
    76   39   95 1    
    77   40   41 1    
    78   40   42 1    
    79   40   96 1    
    80   41   97 1    
    81   41   98 1    
    82   41   99 1    
    83   42   43 2    
    84   42   44 am   BACKBONE|DICT|INTERRES
    85   44   45 1    
    86   44  100 1    
    87   45   46 1    
    88   45   47 1    
    89   45  101 1    
    90   46  102 1    
    91   46  103 1    
    92   46  104 1    
    93   47   48 2    
    94   47   49 am   BACKBONE|DICT|INTERRES
    95   49   50 1    
    96   49  105 1    
    97   50   51 1    
    98   50   52 1    
    99   50  106 1    
   100   51  107 1    
   101   51  108 1    
   102   51  109 1    
   103   52   53 2    
   104   52   54 am   BACKBONE|DICT|INTERRES
   105   54   55 1    
   106   54  110 1    
   107   55   56 1    
   108   55   59 1    
   109   55  111 1    
   110   56   57 am   BACKBONE|DICT|INTERRES
   111   56   58 2    
   112   57  112 1    
   113   57  113 1    
   114   59   60 1    
   115   59  114 1    
   116   59  115 1    
   117   60   61 1    
   118   61  116 1    
   119   61  117 1    
@<TRIPOS>SUBSTRUCTURE
     1 UNK         1 GROUP             0       ****    0 ROOT    
