@<TRIPOS>MOLECULE
3R8
117   119    1
SMALL
USER_CHARGES


@<TRIPOS>ATOM
      1 CA         14.7536  -24.0114  -44.8888 C.3       0 UNK        -0.2013 
      2 C          15.5837  -25.2805  -44.7727 C.2       0 UNK         0.4866 
      3 O          16.8017  -25.2034  -44.6093 O.2       0 UNK        -0.5176 
      4 N          14.9360  -26.4502  -44.8477 N.am      1 UNK        -0.4884 
      5 CA         15.5560  -27.7788  -44.7609 C.3       1 UNK         0.0853 
      6 C6         14.6914  -28.8546  -45.4672 C.3       10 UNK        -0.0849 
      7 S7         14.7925  -28.6617  -47.2807 S.3       10 UNK        -0.2776 
      8 C8         15.9693  -29.9780  -47.7495 C.3       10 UNK         0.0316 
      9 C9         17.2551  -29.9399  -46.9308 C.ar      10 UNK        -0.0863 
     10 C10        17.4700  -30.8889  -45.9266 C.ar      10 UNK        -0.1009 
     11 C11        18.6282  -30.8485  -45.1481 C.ar      10 UNK        -0.0712 
     12 C12        19.5832  -29.8569  -45.3840 C.ar      10 UNK        -0.0894 
     13 C13        19.3909  -28.9115  -46.3947 C.ar      10 UNK        -0.0745 
     14 C14        18.2240  -28.9583  -47.1668 C.ar      10 UNK        -0.0972 
     15 C15        20.4516  -27.8551  -46.6691 C.3       10 UNK         0.0209 
     16 S16        20.2760  -26.4089  -45.5775 S.3       10 UNK        -0.2568 
     17 C17        21.4330  -26.7939  -44.2175 C.3       10 UNK        -0.0983 
     18 CA         20.8732  -26.3524  -42.8445 C.3       3 UNK         0.0876 
     19 N          19.6699  -27.1057  -42.4771 N.am      3 UNK        -0.4424 
     20 C          18.8244  -26.7746  -41.4921 C.2       2 UNK         0.4918 
     21 O          19.0096  -25.8417  -40.7091 O.2       2 UNK        -0.4875 
     22 CA         17.5097  -27.5654  -41.4539 C.3       2 UNK         0.0481 
     23 CB         16.5587  -27.1158  -40.3262 C.3       2 UNK        -0.1831 
     24 N          16.8823  -27.4034  -42.7609 N.am      2 UNK        -0.4498 
     25 C          15.9071  -28.1377  -43.3019 C.2       1 UNK         0.5027 
     26 O          15.2975  -29.0292  -42.7085 O.2       1 UNK        -0.4969 
     27 C          21.9642  -26.3787  -41.7546 C.2       3 UNK         0.5005 
     28 O          22.6683  -25.3810  -41.5908 O.2       3 UNK        -0.5279 
     29 N          22.0800  -27.4998  -41.0281 N.am      4 UNK        -0.4463 
     30 CA         22.9139  -27.7638  -39.8446 C.3       4 UNK         0.0283 
     31 CB         22.5284  -26.8347  -38.6786 C.3       4 UNK        -0.1875 
     32 C          24.4373  -27.7628  -40.0659 C.2       4 UNK         0.4949 
     33 O          25.1328  -28.5127  -39.3796 O.2       4 UNK        -0.5039 
     34 N          24.9398  -26.9555  -41.0077 N.am      5 UNK        -0.4663 
     35 CA         26.3435  -26.8917  -41.4229 C.3       5 UNK         0.0242 
     36 CB         26.4999  -25.8173  -42.5108 C.3       5 UNK        -0.1982 
     37 C          26.8348  -28.2574  -41.9298 C.2       5 UNK         0.5017 
     38 O          26.1919  -28.8368  -42.8055 O.2       5 UNK        -0.5012 
     39 N          27.9262  -28.7622  -41.3368 N.am      6 UNK        -0.4439 
     40 CA         28.4893  -30.1053  -41.5442 C.3       6 UNK         0.0297 
     41 CB         29.0667  -30.2476  -42.9693 C.3       6 UNK        -0.2006 
     42 C          27.5095  -31.2442  -41.1776 C.2       6 UNK         0.4892 
     43 O          27.5517  -32.3090  -41.7959 O.2       6 UNK        -0.5089 
     44 N          26.6505  -30.9920  -40.1761 N.am      7 UNK        -0.4243 
     45 CA         25.5949  -31.8694  -39.6543 C.3       7 UNK         0.0196 
     46 CB         26.1844  -33.1615  -39.0482 C.3       7 UNK        -0.2007 
     47 C          24.4614  -32.1387  -40.6639 C.2       7 UNK         0.5020 
     48 O          23.8290  -33.1955  -40.6077 O.2       7 UNK        -0.5147 
     49 N          24.1979  -31.1772  -41.5601 N.am      8 UNK        -0.4734 
     50 CA         23.1234  -31.2180  -42.5555 C.3       8 UNK         0.0238 
     51 CB         23.4438  -30.2079  -43.6712 C.3       8 UNK        -0.1912 
     52 C          21.7395  -30.9776  -41.9195 C.2       8 UNK         0.5038 
     53 O          21.1462  -29.9176  -42.1283 O.2       8 UNK        -0.5046 
     54 N          21.2753  -31.9715  -41.1521 N.am      9 UNK        -0.4200 
     55 CA         20.0023  -32.0375  -40.4165 C.3       9 UNK         0.0839 
     56 C          19.7387  -30.8369  -39.4556 C.2       9 UNK         0.5513 
     57 N          18.4908  -30.4641  -39.2049 N.am      9 UNK        -0.7519 
     58 O          20.6653  -30.2880  -38.8653 O.2       9 UNK        -0.4960 
     59 C59        18.8057  -32.5038  -41.3021 C.3       10 UNK        -0.0876 
     60 S60        18.1581  -31.2687  -42.4786 S.3       10 UNK        -0.2414 
     61 C61        18.8452  -31.8707  -44.0467 C.3       10 UNK         0.0169 
     62 H62        13.6953  -24.2271  -45.0343 H         1 UNK         0.0903 
     63 H63        14.8570  -23.4120  -43.9847 H         1 UNK         0.0903 
     64 H64        15.0974  -23.4156  -45.7339 H         1 UNK         0.0903 
     65 H65        13.9330  -26.4498  -44.9685 H         1 UNK         0.3096 
     66 H66        16.5148  -27.7366  -45.2828 H         1 UNK         0.1121 
     67 H67        13.6483  -28.7800  -45.1554 H         1 UNK         0.0849 
     68 H68        15.0049  -29.8645  -45.1996 H         1 UNK         0.0849 
     69 H69        15.4766  -30.9460  -47.6444 H         1 UNK         0.0865 
     70 H70        16.2108  -29.8768  -48.8086 H         1 UNK         0.0865 
     71 H71        16.7277  -31.6522  -45.7362 H         1 UNK         0.1346 
     72 H72        20.4743  -29.8230  -44.7757 H         1 UNK         0.1412 
     73 H73        18.0624  -28.2242  -47.9447 H         1 UNK         0.1426 
     74 H74        20.3739  -27.5157  -47.7030 H         1 UNK         0.0716 
     75 H75        21.4502  -28.2839  -46.5714 H         1 UNK         0.0716 
     76 H76        22.3729  -26.2831  -44.4362 H         1 UNK         0.0695 
     77 H77        21.6584  -27.8602  -44.2082 H         1 UNK         0.0695 
     78 H78        20.5714  -25.3061  -42.9343 H         1 UNK         0.0983 
     79 H79        19.4496  -27.9014  -43.0592 H         1 UNK         0.3095 
     80 H80        17.7609  -28.6157  -41.3057 H         1 UNK         0.0454 
     81 H81        16.2501  -26.0774  -40.4509 H         1 UNK         0.0851 
     82 H82        17.0429  -27.2002  -39.3527 H         1 UNK         0.0851 
     83 H83        15.6599  -27.7310  -40.2916 H         1 UNK         0.0851 
     84 H84        17.2491  -26.6425  -43.3293 H         1 UNK         0.2976 
     85 H85        21.5170  -28.2948  -41.3299 H         1 UNK         0.3116 
     86 H86        22.6649  -28.7818  -39.5456 H         1 UNK         0.0646 
     87 H87        22.7510  -25.7903  -38.8986 H         1 UNK         0.0847 
     88 H88        23.0750  -27.0995  -37.7727 H         1 UNK         0.0847 
     89 H89        21.4653  -26.9112  -38.4495 H         1 UNK         0.0847 
     90 H90        24.2851  -26.3362  -41.4774 H         1 UNK         0.3040 
     91 H91        26.9332  -26.5953  -40.5531 H         1 UNK         0.1015 
     92 H92        25.9038  -26.0499  -43.3945 H         1 UNK         0.0786 
     93 H93        27.5395  -25.7333  -42.8305 H         1 UNK         0.0786 
     94 H94        26.1917  -24.8366  -42.1477 H         1 UNK         0.0786 
     95 H95        28.3784  -28.2094  -40.6206 H         1 UNK         0.3172 
     96 H96        29.3222  -30.1942  -40.8452 H         1 UNK         0.0595 
     97 H97        29.6159  -31.1837  -43.0774 H         1 UNK         0.0839 
     98 H98        29.7604  -29.4392  -43.2001 H         1 UNK         0.0839 
     99 H99        28.2826  -30.2440  -43.7272 H         1 UNK         0.0839 
    100 H100       26.6564  -30.0611  -39.7746 H         1 UNK         0.2998 
    101 H101       25.1293  -31.3146  -38.8382 H         1 UNK         0.0822 
    102 H102       25.4187  -33.7285  -38.5174 H         1 UNK         0.0787 
    103 H103       26.5985  -33.8178  -39.8141 H         1 UNK         0.0787 
    104 H104       26.9751  -32.9395  -38.3316 H         1 UNK         0.0787 
    105 H105       24.7801  -30.3496  -41.5617 H         1 UNK         0.3055 
    106 H106       23.1060  -32.2118  -43.0087 H         1 UNK         0.1106 
    107 H107       22.6903  -30.2360  -44.4571 H         1 UNK         0.0828 
    108 H108       23.4921  -29.1868  -43.2912 H         1 UNK         0.0828 
    109 H109       24.4012  -30.4318  -44.1420 H         1 UNK         0.0828 
    110 H110       21.9169  -32.7377  -40.9764 H         1 UNK         0.2931 
    111 H111       20.1717  -32.8605  -39.7212 H         1 UNK         0.0412 
    112 H112       17.7180  -30.8943  -39.6876 H         1 UNK         0.3472 
    113 H113       18.3257  -29.7178  -38.5489 H         1 UNK         0.3472 
    114 H114       19.0879  -33.4043  -41.8495 H         1 UNK         0.0970 
    115 H115       17.9777  -32.8173  -40.6646 H         1 UNK         0.0970 
    116 H116       18.3735  -32.8191  -44.3084 H         1 UNK         0.0612 
    117 H117       19.9101  -32.0747  -43.9323 H         1 UNK         0.0612 
@<TRIPOS>BOND
     1    1    2 1    
     2    1   62 1    
     3    1   63 1    
     4    1   64 1    
     5    2    3 2    
     6    2    4 am   BACKBONE|DICT|INTERRES
     7    4    5 1    
     8    4   65 1    
     9    5    6 1    
    10    5   25 1    
    11    5   66 1    
    12    6    7 1    
    13    6   67 1    
    14    6   68 1    
    15    7    8 1    
    16    8    9 1    
    17    8   69 1    
    18    8   70 1    
    19    9   10 ar   
    20    9   14 ar   
    21   10   11 ar   
    22   10   71 1    
    23   11   12 ar   
    24   11   61 1    
    25   12   13 ar   
    26   12   72 1    
    27   13   14 ar   
    28   13   15 1    
    29   14   73 1    
    30   15   16 1    
    31   15   74 1    
    32   15   75 1    
    33   16   17 1    
    34   17   18 1    
    35   17   76 1    
    36   17   77 1    
    37   18   19 1    
    38   18   27 1    
    39   18   78 1    
    40   19   20 am   BACKBONE|DICT|INTERRES
    41   19   79 1    
    42   20   21 2    
    43   20   22 1    
    44   22   23 1    
    45   22   24 1    
    46   22   80 1    
    47   23   81 1    
    48   23   82 1    
    49   23   83 1    
    50   24   25 am   BACKBONE|DICT|INTERRES
    51   24   84 1    
    52   25   26 2    
    53   27   28 2    
    54   27   29 am   BACKBONE|DICT|INTERRES
    55   29   30 1    
    56   29   85 1    
    57   30   31 1    
    58   30   32 1    
    59   30   86 1    
    60   31   87 1    
    61   31   88 1    
    62   31   89 1    
    63   32   33 2    
    64   32   34 am   BACKBONE|DICT|INTERRES
    65   34   35 1    
    66   34   90 1    
    67   35   36 1    
    68   35   37 1    
    69   35   91 1    
    70   36   92 1    
    71   36   93 1    
    72   36   94 1    
    73   37   38 2    
    74   37   39 am   BACKBONE|DICT|INTERRES
    75   39   40 1    
    76   39   95 1    
    77   40   41 1    
    78   40   42 1    
    79   40   96 1    
    80   41   97 1    
    81   41   98 1    
    82   41   99 1    
    83   42   43 2    
    84   42   44 am   BACKBONE|DICT|INTERRES
    85   44   45 1    
    86   44  100 1    
    87   45   46 1    
    88   45   47 1    
    89   45  101 1    
    90   46  102 1    
    91   46  103 1    
    92   46  104 1    
    93   47   48 2    
    94   47   49 am   BACKBONE|DICT|INTERRES
    95   49   50 1    
    96   49  105 1    
    97   50   51 1    
    98   50   52 1    
    99   50  106 1    
   100   51  107 1    
   101   51  108 1    
   102   51  109 1    
   103   52   53 2    
   104   52   54 am   BACKBONE|DICT|INTERRES
   105   54   55 1    
   106   54  110 1    
   107   55   56 1    
   108   55   59 1    
   109   55  111 1    
   110   56   57 am   BACKBONE|DICT|INTERRES
   111   56   58 2    
   112   57  112 1    
   113   57  113 1    
   114   59   60 1    
   115   59  114 1    
   116   59  115 1    
   117   60   61 1    
   118   61  116 1    
   119   61  117 1    
@<TRIPOS>SUBSTRUCTURE
     1 UNK         1 GROUP             0       ****    0 ROOT    
