@<TRIPOS>MOLECULE
3R8
117   119    1
SMALL
USER_CHARGES


@<TRIPOS>ATOM
      1 CA         20.9088  -24.2649  -39.8337 C.3       0 UNK        -0.2013 
      2 C          19.7786  -24.1529  -40.8465 C.2       0 UNK         0.4866 
      3 O          19.0577  -23.1542  -40.8538 O.2       0 UNK        -0.5176 
      4 N          19.6176  -25.1704  -41.6981 N.am      1 UNK        -0.4884 
      5 CA         18.6477  -25.1980  -42.7949 C.3       1 UNK         0.0853 
      6 C6         18.3448  -26.6498  -43.2363 C.3       10 UNK        -0.0849 
      7 S7         17.3766  -27.5971  -42.0143 S.3       10 UNK        -0.2776 
      8 C8         18.4927  -28.9925  -41.6227 C.3       10 UNK         0.0316 
      9 C9         18.9624  -29.8492  -42.8043 C.ar      10 UNK        -0.0863 
     10 C10        20.0078  -30.7482  -42.5838 C.ar      10 UNK        -0.1009 
     11 C11        20.5265  -31.5255  -43.6204 C.ar      10 UNK        -0.0712 
     12 C12        20.0051  -31.3851  -44.9091 C.ar      10 UNK        -0.0894 
     13 C13        18.9531  -30.4963  -45.1535 C.ar      10 UNK        -0.0745 
     14 C14        18.4127  -29.7635  -44.0911 C.ar      10 UNK        -0.0972 
     15 C15        18.4114  -30.3200  -46.5688 C.3       10 UNK         0.0209 
     16 S16        18.3884  -28.5765  -47.1175 S.3       10 UNK        -0.2568 
     17 C17        20.1298  -28.0849  -46.8745 C.3       10 UNK        -0.0983 
     18 CA         20.4496  -26.6540  -47.3854 C.3       3 UNK         0.0876 
     19 N          19.5205  -25.6667  -46.8247 N.am      3 UNK        -0.4424 
     20 C          19.4130  -24.3746  -47.1644 C.2       2 UNK         0.4918 
     21 O          20.0031  -23.8663  -48.1172 O.2       2 UNK        -0.4875 
     22 CA         18.5387  -23.4864  -46.2516 C.3       2 UNK         0.0481 
     23 CB         17.2105  -23.1499  -46.9479 C.3       2 UNK        -0.1831 
     24 N          18.2567  -24.0671  -44.9289 N.am      2 UNK        -0.4498 
     25 C          19.1740  -24.4052  -44.0079 C.2       1 UNK         0.5027 
     26 O          20.3855  -24.2144  -44.1527 O.2       1 UNK        -0.4969 
     27 C          21.9359  -26.3267  -47.0925 C.2       3 UNK         0.5005 
     28 O          22.8069  -26.9466  -47.7045 O.2       3 UNK        -0.5279 
     29 N          22.1987  -25.3937  -46.1592 N.am      4 UNK        -0.4463 
     30 CA         23.5039  -25.0032  -45.6146 C.3       4 UNK         0.0283 
     31 CB         24.4516  -24.4651  -46.7085 C.3       4 UNK        -0.1875 
     32 C          24.1158  -26.1296  -44.7642 C.2       4 UNK         0.4949 
     33 O          25.3026  -26.4360  -44.8909 O.2       4 UNK        -0.5039 
     34 N          23.2785  -26.7256  -43.9088 N.am      5 UNK        -0.4663 
     35 CA         23.6244  -27.7979  -42.9843 C.3       5 UNK         0.0242 
     36 CB         23.4480  -29.1566  -43.6841 C.3       5 UNK        -0.1982 
     37 C          22.7161  -27.6956  -41.7552 C.2       5 UNK         0.5017 
     38 O          21.5929  -27.1968  -41.8675 O.2       5 UNK        -0.5012 
     39 N          23.2117  -28.1819  -40.6134 N.am      6 UNK        -0.4439 
     40 CA         22.4474  -28.3333  -39.3756 C.3       6 UNK         0.0297 
     41 CB         23.3932  -28.1511  -38.1772 C.3       6 UNK        -0.2006 
     42 C          21.7902  -29.7207  -39.3368 C.2       6 UNK         0.4892 
     43 O          22.3000  -30.6542  -39.9620 O.2       6 UNK        -0.5089 
     44 N          20.6789  -29.8261  -38.5949 N.am      7 UNK        -0.4243 
     45 CA         19.9083  -31.0580  -38.3897 C.3       7 UNK         0.0196 
     46 CB         18.6533  -30.7284  -37.5649 C.3       7 UNK        -0.2007 
     47 C          20.7261  -32.1753  -37.7135 C.2       7 UNK         0.5020 
     48 O          21.6654  -31.8803  -36.9712 O.2       7 UNK        -0.5147 
     49 N          20.3284  -33.4294  -37.9799 N.am      8 UNK        -0.4734 
     50 CA         21.0497  -34.6759  -37.6794 C.3       8 UNK         0.0238 
     51 CB         21.2865  -34.8649  -36.1645 C.3       8 UNK        -0.1912 
     52 C          22.3397  -34.7435  -38.5168 C.2       8 UNK         0.5038 
     53 O          23.4387  -34.5625  -37.9895 O.2       8 UNK        -0.5046 
     54 N          22.1481  -34.9433  -39.8276 N.am      9 UNK        -0.4200 
     55 CA         23.1648  -34.8509  -40.8897 C.3       9 UNK         0.0839 
     56 C          24.3794  -35.8167  -40.7636 C.2       9 UNK         0.5513 
     57 N          24.2848  -36.9093  -40.0157 N.am      9 UNK        -0.7519 
     58 O          25.4218  -35.5708  -41.3647 O.2       9 UNK        -0.4960 
     59 C59        22.5330  -34.9850  -42.3046 C.3       10 UNK        -0.0876 
     60 S60        21.0076  -34.0089  -42.5460 S.3       10 UNK        -0.2414 
     61 C61        21.6537  -32.5061  -43.3358 C.3       10 UNK         0.0169 
     62 H62        20.5040  -24.3236  -38.8238 H         1 UNK         0.0903 
     63 H63        21.5240  -25.1474  -40.0062 H         1 UNK         0.0903 
     64 H64        21.5540  -23.3888  -39.8933 H         1 UNK         0.0903 
     65 H65        20.2803  -25.9447  -41.6849 H         1 UNK         0.3096 
     66 H66        17.7209  -24.7259  -42.4603 H         1 UNK         0.1121 
     67 H67        19.2769  -27.1707  -43.4645 H         1 UNK         0.0849 
     68 H68        17.7586  -26.6683  -44.1571 H         1 UNK         0.0849 
     69 H69        19.3658  -28.5853  -41.1111 H         1 UNK         0.0865 
     70 H70        17.9912  -29.6404  -40.9027 H         1 UNK         0.0865 
     71 H71        20.4252  -30.8505  -41.5950 H         1 UNK         0.1346 
     72 H72        20.4181  -31.9695  -45.7199 H         1 UNK         0.1412 
     73 H73        17.5866  -29.0978  -44.2920 H         1 UNK         0.1426 
     74 H74        17.3961  -30.7164  -46.6105 H         1 UNK         0.0716 
     75 H75        18.9985  -30.8996  -47.2829 H         1 UNK         0.0716 
     76 H76        20.7605  -28.8192  -47.3796 H         1 UNK         0.0695 
     77 H77        20.3602  -28.1652  -45.8098 H         1 UNK         0.0695 
     78 H78        20.3280  -26.6384  -48.4705 H         1 UNK         0.0983 
     79 H79        18.9463  -26.0009  -46.0674 H         1 UNK         0.3095 
     80 H80        19.0854  -22.5552  -46.0901 H         1 UNK         0.0454 
     81 H81        17.3852  -22.6847  -47.9191 H         1 UNK         0.0851 
     82 H82        16.6185  -22.4488  -46.3594 H         1 UNK         0.0851 
     83 H83        16.6061  -24.0416  -47.1191 H         1 UNK         0.0851 
     84 H84        17.2845  -24.2636  -44.7340 H         1 UNK         0.2976 
     85 H85        21.4085  -24.9618  -45.6893 H         1 UNK         0.3116 
     86 H86        23.3054  -24.1797  -44.9268 H         1 UNK         0.0646 
     87 H87        24.7725  -25.2485  -47.3954 H         1 UNK         0.0847 
     88 H88        23.9763  -23.6782  -47.2939 H         1 UNK         0.0847 
     89 H89        25.3524  -24.0400  -46.2646 H         1 UNK         0.0847 
     90 H90        22.3309  -26.3815  -43.8141 H         1 UNK         0.3040 
     91 H91        24.6617  -27.6806  -42.6621 H         1 UNK         0.1015 
     92 H92        23.6876  -29.9789  -43.0092 H         1 UNK         0.0786 
     93 H93        24.1032  -29.2458  -44.5507 H         1 UNK         0.0786 
     94 H94        22.4218  -29.2996  -44.0256 H         1 UNK         0.0786 
     95 H95        24.1139  -28.6358  -40.6314 H         1 UNK         0.3172 
     96 H96        21.6677  -27.5703  -39.3242 H         1 UNK         0.0595 
     97 H97        24.1810  -28.9056  -38.1650 H         1 UNK         0.0839 
     98 H98        22.8513  -28.2339  -37.2341 H         1 UNK         0.0839 
     99 H99        23.8677  -27.1697  -38.1918 H         1 UNK         0.0839 
    100 H100       20.3641  -29.0147  -38.0835 H         1 UNK         0.2998 
    101 H101       19.5956  -31.4140  -39.3734 H         1 UNK         0.0822 
    102 H102       18.0333  -31.6143  -37.4204 H         1 UNK         0.0787 
    103 H103       18.9112  -30.3480  -36.5755 H         1 UNK         0.0787 
    104 H104       18.0345  -29.9812  -38.0624 H         1 UNK         0.0787 
    105 H105       19.5183  -33.5413  -38.5748 H         1 UNK         0.3055 
    106 H106       20.4108  -35.4984  -38.0064 H         1 UNK         0.1106 
    107 H107       20.3530  -34.7988  -35.6060 H         1 UNK         0.0828 
    108 H108       21.7166  -35.8466  -35.9631 H         1 UNK         0.0828 
    109 H109       21.9753  -34.1266  -35.7538 H         1 UNK         0.0828 
    110 H110       21.2040  -35.0640  -40.1630 H         1 UNK         0.2931 
    111 H111       23.5739  -33.8414  -40.8141 H         1 UNK         0.0412 
    112 H112       23.4353  -37.1128  -39.5139 H         1 UNK         0.3472 
    113 H113       25.0771  -37.5280  -39.9402 H         1 UNK         0.3472 
    114 H114       23.2590  -34.7109  -43.0726 H         1 UNK         0.0970 
    115 H115       22.2760  -36.0279  -42.5006 H         1 UNK         0.0970 
    116 H116       22.3890  -32.0431  -42.6760 H         1 UNK         0.0612 
    117 H117       22.1761  -32.7700  -44.2566 H         1 UNK         0.0612 
@<TRIPOS>BOND
     1    1    2 1    
     2    1   62 1    
     3    1   63 1    
     4    1   64 1    
     5    2    3 2    
     6    2    4 am   BACKBONE|DICT|INTERRES
     7    4    5 1    
     8    4   65 1    
     9    5    6 1    
    10    5   25 1    
    11    5   66 1    
    12    6    7 1    
    13    6   67 1    
    14    6   68 1    
    15    7    8 1    
    16    8    9 1    
    17    8   69 1    
    18    8   70 1    
    19    9   10 ar   
    20    9   14 ar   
    21   10   11 ar   
    22   10   71 1    
    23   11   12 ar   
    24   11   61 1    
    25   12   13 ar   
    26   12   72 1    
    27   13   14 ar   
    28   13   15 1    
    29   14   73 1    
    30   15   16 1    
    31   15   74 1    
    32   15   75 1    
    33   16   17 1    
    34   17   18 1    
    35   17   76 1    
    36   17   77 1    
    37   18   19 1    
    38   18   27 1    
    39   18   78 1    
    40   19   20 am   BACKBONE|DICT|INTERRES
    41   19   79 1    
    42   20   21 2    
    43   20   22 1    
    44   22   23 1    
    45   22   24 1    
    46   22   80 1    
    47   23   81 1    
    48   23   82 1    
    49   23   83 1    
    50   24   25 am   BACKBONE|DICT|INTERRES
    51   24   84 1    
    52   25   26 2    
    53   27   28 2    
    54   27   29 am   BACKBONE|DICT|INTERRES
    55   29   30 1    
    56   29   85 1    
    57   30   31 1    
    58   30   32 1    
    59   30   86 1    
    60   31   87 1    
    61   31   88 1    
    62   31   89 1    
    63   32   33 2    
    64   32   34 am   BACKBONE|DICT|INTERRES
    65   34   35 1    
    66   34   90 1    
    67   35   36 1    
    68   35   37 1    
    69   35   91 1    
    70   36   92 1    
    71   36   93 1    
    72   36   94 1    
    73   37   38 2    
    74   37   39 am   BACKBONE|DICT|INTERRES
    75   39   40 1    
    76   39   95 1    
    77   40   41 1    
    78   40   42 1    
    79   40   96 1    
    80   41   97 1    
    81   41   98 1    
    82   41   99 1    
    83   42   43 2    
    84   42   44 am   BACKBONE|DICT|INTERRES
    85   44   45 1    
    86   44  100 1    
    87   45   46 1    
    88   45   47 1    
    89   45  101 1    
    90   46  102 1    
    91   46  103 1    
    92   46  104 1    
    93   47   48 2    
    94   47   49 am   BACKBONE|DICT|INTERRES
    95   49   50 1    
    96   49  105 1    
    97   50   51 1    
    98   50   52 1    
    99   50  106 1    
   100   51  107 1    
   101   51  108 1    
   102   51  109 1    
   103   52   53 2    
   104   52   54 am   BACKBONE|DICT|INTERRES
   105   54   55 1    
   106   54  110 1    
   107   55   56 1    
   108   55   59 1    
   109   55  111 1    
   110   56   57 am   BACKBONE|DICT|INTERRES
   111   56   58 2    
   112   57  112 1    
   113   57  113 1    
   114   59   60 1    
   115   59  114 1    
   116   59  115 1    
   117   60   61 1    
   118   61  116 1    
   119   61  117 1    
@<TRIPOS>SUBSTRUCTURE
     1 UNK         1 GROUP             0       ****    0 ROOT    
