@<TRIPOS>MOLECULE
3R8
117   119    1
SMALL
USER_CHARGES


@<TRIPOS>ATOM
      1 CA         16.1845  -23.4687  -45.1203 C.3       0 UNK        -0.2013 
      2 C          16.3953  -24.4219  -46.2948 C.2       0 UNK         0.4866 
      3 O          16.0749  -24.0495  -47.4216 O.2       0 UNK        -0.5176 
      4 N          16.9215  -25.6442  -46.1181 N.am      1 UNK        -0.4884 
      5 CA         17.3817  -26.3040  -44.8840 C.3       1 UNK         0.0853 
      6 C6         16.2709  -26.5415  -43.8195 C.3       10 UNK        -0.0849 
      7 S7         14.9716  -27.6583  -44.4535 S.3       10 UNK        -0.2776 
      8 C8         15.0387  -29.0658  -43.2847 C.3       10 UNK         0.0316 
      9 C9         16.4254  -29.6872  -43.1215 C.ar      10 UNK        -0.0863 
     10 C10        16.8888  -30.0242  -41.8457 C.ar      10 UNK        -0.1009 
     11 C11        18.1602  -30.5776  -41.6588 C.ar      10 UNK        -0.0712 
     12 C12        18.9876  -30.7593  -42.7758 C.ar      10 UNK        -0.0894 
     13 C13        18.5211  -30.4727  -44.0613 C.ar      10 UNK        -0.0745 
     14 C14        17.2374  -29.9480  -44.2285 C.ar      10 UNK        -0.0972 
     15 C15        19.3810  -30.7598  -45.2807 C.3       10 UNK         0.0209 
     16 S16        20.1073  -29.2388  -45.9619 S.3       10 UNK        -0.2568 
     17 C17        21.8268  -29.2772  -45.3318 C.3       10 UNK        -0.0983 
     18 CA         22.2144  -28.0945  -44.4013 C.3       3 UNK         0.0876 
     19 N          21.5892  -26.8417  -44.8280 N.am      3 UNK        -0.4424 
     20 C          21.8027  -25.6141  -44.3405 C.2       2 UNK         0.4918 
     21 O          22.6644  -25.3485  -43.5034 O.2       2 UNK        -0.4875 
     22 CA         20.8223  -24.5223  -44.8150 C.3       2 UNK         0.0481 
     23 CB         21.4044  -23.7604  -46.0149 C.3       2 UNK        -0.1831 
     24 N          19.4928  -25.0507  -45.1641 N.am      2 UNK        -0.4498 
     25 C          18.6762  -25.6897  -44.3093 C.2       1 UNK         0.5027 
     26 O          18.9465  -25.8393  -43.1190 O.2       1 UNK        -0.4969 
     27 C          22.0083  -28.4350  -42.9081 C.2       3 UNK         0.5005 
     28 O          22.8066  -29.2045  -42.3704 O.2       3 UNK        -0.5279 
     29 N          21.0091  -27.8340  -42.2408 N.am      4 UNK        -0.4463 
     30 CA         20.8052  -27.9438  -40.7940 C.3       4 UNK         0.0283 
     31 CB         19.4477  -27.3380  -40.4059 C.3       4 UNK        -0.1875 
     32 C          21.9279  -27.2856  -39.9757 C.2       4 UNK         0.4949 
     33 O          22.2477  -27.7818  -38.8966 O.2       4 UNK        -0.5039 
     34 N          22.5322  -26.2096  -40.5047 N.am      5 UNK        -0.4663 
     35 CA         23.6729  -25.5252  -39.8844 C.3       5 UNK         0.0242 
     36 CB         23.8519  -24.1368  -40.5186 C.3       5 UNK        -0.1982 
     37 C          24.9718  -26.3425  -39.9881 C.2       5 UNK         0.5017 
     38 O          25.8118  -26.2634  -39.0918 O.2       5 UNK        -0.5012 
     39 N          25.0944  -27.1327  -41.0635 N.am      6 UNK        -0.4439 
     40 CA         26.1701  -28.1046  -41.2733 C.3       6 UNK         0.0297 
     41 CB         26.3098  -28.3706  -42.7822 C.3       6 UNK        -0.2006 
     42 C          25.9354  -29.4287  -40.5198 C.2       6 UNK         0.4892 
     43 O          26.8665  -30.2286  -40.4223 O.2       6 UNK        -0.5089 
     44 N          24.7014  -29.6444  -40.0356 N.am      7 UNK        -0.4243 
     45 CA         24.1680  -30.8714  -39.4335 C.3       7 UNK         0.0196 
     46 CB         24.8723  -31.1913  -38.0984 C.3       7 UNK        -0.2007 
     47 C          24.1619  -32.0597  -40.4158 C.2       7 UNK         0.5020 
     48 O          24.3066  -33.2095  -39.9979 O.2       7 UNK        -0.5147 
     49 N          23.9690  -31.7708  -41.7093 N.am      8 UNK        -0.4734 
     50 CA         23.9361  -32.7453  -42.8021 C.3       8 UNK         0.0238 
     51 CB         24.5971  -32.1165  -44.0429 C.3       8 UNK        -0.1912 
     52 C          22.4944  -33.2196  -43.0592 C.2       8 UNK         0.5038 
     53 O          22.0260  -33.1976  -44.1980 O.2       8 UNK        -0.5046 
     54 N          21.8083  -33.6041  -41.9781 N.am      9 UNK        -0.4200 
     55 CA         20.3791  -33.9502  -41.9460 C.3       9 UNK         0.0839 
     56 C          20.0663  -35.4307  -42.3051 C.2       9 UNK         0.5513 
     57 N          21.0558  -36.2829  -42.5447 N.am      9 UNK        -0.7519 
     58 O          18.9011  -35.8125  -42.3753 O.2       9 UNK        -0.4960 
     59 C59        19.7252  -33.5403  -40.5960 C.3       10 UNK        -0.0876 
     60 S60        20.1561  -31.8468  -40.0474 S.3       10 UNK        -0.2414 
     61 C61        18.5783  -30.9446  -40.2315 C.3       10 UNK         0.0169 
     62 H62        16.2548  -22.4363  -45.4623 H         1 UNK         0.0903 
     63 H63        15.1893  -23.6098  -44.6997 H         1 UNK         0.0903 
     64 H64        16.9174  -23.5911  -44.3266 H         1 UNK         0.0903 
     65 H65        17.0124  -26.2215  -46.9432 H         1 UNK         0.3096 
     66 H66        17.7074  -27.2936  -45.2074 H         1 UNK         0.1121 
     67 H67        15.8092  -25.6084  -43.5001 H         1 UNK         0.0849 
     68 H68        16.6888  -26.9799  -42.9118 H         1 UNK         0.0849 
     69 H69        14.3488  -29.8383  -43.6266 H         1 UNK         0.0865 
     70 H70        14.6598  -28.7229  -42.3205 H         1 UNK         0.0865 
     71 H71        16.2545  -29.8551  -40.9859 H         1 UNK         0.1346 
     72 H72        19.9917  -31.1394  -42.6604 H         1 UNK         0.1412 
     73 H73        16.8772  -29.7262  -45.2238 H         1 UNK         0.1426 
     74 H74        18.7607  -31.2194  -46.0515 H         1 UNK         0.0716 
     75 H75        20.1549  -31.4923  -45.0510 H         1 UNK         0.0716 
     76 H76        22.4726  -29.2516  -46.2108 H         1 UNK         0.0695 
     77 H77        22.0329  -30.2401  -44.8624 H         1 UNK         0.0695 
     78 H78        23.2910  -27.9435  -44.5057 H         1 UNK         0.0983 
     79 H79        20.8549  -26.9571  -45.5117 H         1 UNK         0.3095 
     80 H80        20.6937  -23.8171  -43.9914 H         1 UNK         0.0454 
     81 H81        21.5364  -24.4085  -46.8821 H         1 UNK         0.0851 
     82 H82        22.3809  -23.3389  -45.7718 H         1 UNK         0.0851 
     83 H83        20.7610  -22.9311  -46.3092 H         1 UNK         0.0851 
     84 H84        19.1997  -24.9591  -46.1270 H         1 UNK         0.2976 
     85 H85        20.3825  -27.2065  -42.7343 H         1 UNK         0.3116 
     86 H86        20.7933  -29.0052  -40.5442 H         1 UNK         0.0646 
     87 H87        18.6357  -27.7624  -40.9957 H         1 UNK         0.0847 
     88 H88        19.4321  -26.2569  -40.5478 H         1 UNK         0.0847 
     89 H89        19.2234  -27.5289  -39.3558 H         1 UNK         0.0847 
     90 H90        22.2365  -25.8730  -41.4138 H         1 UNK         0.3040 
     91 H91        23.4542  -25.3885  -38.8226 H         1 UNK         0.1015 
     92 H92        24.6505  -23.5838  -40.0223 H         1 UNK         0.0786 
     93 H93        22.9436  -23.5401  -40.4331 H         1 UNK         0.0786 
     94 H94        24.1125  -24.2029  -41.5754 H         1 UNK         0.0786 
     95 H95        24.3488  -27.1225  -41.7448 H         1 UNK         0.3172 
     96 H96        27.1086  -27.6786  -40.9123 H         1 UNK         0.0595 
     97 H97        25.4143  -28.8340  -43.1975 H         1 UNK         0.0839 
     98 H98        27.1436  -29.0450  -42.9825 H         1 UNK         0.0839 
     99 H99        26.5007  -27.4499  -43.3338 H         1 UNK         0.0839 
    100 H100       24.0143  -28.9207  -40.1966 H         1 UNK         0.2998 
    101 H101       23.1201  -30.6632  -39.2111 H         1 UNK         0.0822 
    102 H102       24.8554  -30.3329  -37.4268 H         1 UNK         0.0787 
    103 H103       24.3760  -32.0146  -37.5832 H         1 UNK         0.0787 
    104 H104       25.9125  -31.4822  -38.2473 H         1 UNK         0.0787 
    105 H105       23.7367  -30.8100  -41.9545 H         1 UNK         0.3055 
    106 H106       24.5181  -33.6284  -42.5289 H         1 UNK         0.1106 
    107 H107       24.0806  -31.2123  -44.3627 H         1 UNK         0.0828 
    108 H108       24.5983  -32.8109  -44.8841 H         1 UNK         0.0828 
    109 H109       25.6352  -31.8509  -43.8425 H         1 UNK         0.0828 
    110 H110       22.2838  -33.5961  -41.0859 H         1 UNK         0.2931 
    111 H111       19.8840  -33.3755  -42.7284 H         1 UNK         0.0412 
    112 H112       20.8398  -37.2391  -42.7804 H         1 UNK         0.3472 
    113 H113       22.0148  -35.9786  -42.4949 H         1 UNK         0.3472 
    114 H114       18.6395  -33.6331  -40.6613 H         1 UNK         0.0970 
    115 H115       20.0359  -34.2261  -39.8057 H         1 UNK         0.0970 
    116 H116       18.6517  -30.0262  -39.6494 H         1 UNK         0.0612 
    117 H117       17.7876  -31.5337  -39.7646 H         1 UNK         0.0612 
@<TRIPOS>BOND
     1    1    2 1    
     2    1   62 1    
     3    1   63 1    
     4    1   64 1    
     5    2    3 2    
     6    2    4 am   BACKBONE|DICT|INTERRES
     7    4    5 1    
     8    4   65 1    
     9    5    6 1    
    10    5   25 1    
    11    5   66 1    
    12    6    7 1    
    13    6   67 1    
    14    6   68 1    
    15    7    8 1    
    16    8    9 1    
    17    8   69 1    
    18    8   70 1    
    19    9   10 ar   
    20    9   14 ar   
    21   10   11 ar   
    22   10   71 1    
    23   11   12 ar   
    24   11   61 1    
    25   12   13 ar   
    26   12   72 1    
    27   13   14 ar   
    28   13   15 1    
    29   14   73 1    
    30   15   16 1    
    31   15   74 1    
    32   15   75 1    
    33   16   17 1    
    34   17   18 1    
    35   17   76 1    
    36   17   77 1    
    37   18   19 1    
    38   18   27 1    
    39   18   78 1    
    40   19   20 am   BACKBONE|DICT|INTERRES
    41   19   79 1    
    42   20   21 2    
    43   20   22 1    
    44   22   23 1    
    45   22   24 1    
    46   22   80 1    
    47   23   81 1    
    48   23   82 1    
    49   23   83 1    
    50   24   25 am   BACKBONE|DICT|INTERRES
    51   24   84 1    
    52   25   26 2    
    53   27   28 2    
    54   27   29 am   BACKBONE|DICT|INTERRES
    55   29   30 1    
    56   29   85 1    
    57   30   31 1    
    58   30   32 1    
    59   30   86 1    
    60   31   87 1    
    61   31   88 1    
    62   31   89 1    
    63   32   33 2    
    64   32   34 am   BACKBONE|DICT|INTERRES
    65   34   35 1    
    66   34   90 1    
    67   35   36 1    
    68   35   37 1    
    69   35   91 1    
    70   36   92 1    
    71   36   93 1    
    72   36   94 1    
    73   37   38 2    
    74   37   39 am   BACKBONE|DICT|INTERRES
    75   39   40 1    
    76   39   95 1    
    77   40   41 1    
    78   40   42 1    
    79   40   96 1    
    80   41   97 1    
    81   41   98 1    
    82   41   99 1    
    83   42   43 2    
    84   42   44 am   BACKBONE|DICT|INTERRES
    85   44   45 1    
    86   44  100 1    
    87   45   46 1    
    88   45   47 1    
    89   45  101 1    
    90   46  102 1    
    91   46  103 1    
    92   46  104 1    
    93   47   48 2    
    94   47   49 am   BACKBONE|DICT|INTERRES
    95   49   50 1    
    96   49  105 1    
    97   50   51 1    
    98   50   52 1    
    99   50  106 1    
   100   51  107 1    
   101   51  108 1    
   102   51  109 1    
   103   52   53 2    
   104   52   54 am   BACKBONE|DICT|INTERRES
   105   54   55 1    
   106   54  110 1    
   107   55   56 1    
   108   55   59 1    
   109   55  111 1    
   110   56   57 am   BACKBONE|DICT|INTERRES
   111   56   58 2    
   112   57  112 1    
   113   57  113 1    
   114   59   60 1    
   115   59  114 1    
   116   59  115 1    
   117   60   61 1    
   118   61  116 1    
   119   61  117 1    
@<TRIPOS>SUBSTRUCTURE
     1 UNK         1 GROUP             0       ****    0 ROOT    
