@<TRIPOS>MOLECULE
3R8
117   119    1
SMALL
USER_CHARGES


@<TRIPOS>ATOM
      1 CA         13.8250  -23.1695  -43.6461 C.3       0 UNK        -0.2013 
      2 C          14.9520  -24.1647  -43.8768 C.2       0 UNK         0.4866 
      3 O          15.0115  -24.7900  -44.9365 O.2       0 UNK        -0.5176 
      4 N          15.8491  -24.3216  -42.8945 N.am      1 UNK        -0.4884 
      5 CA         17.0209  -25.1974  -42.9648 C.3       1 UNK         0.0853 
      6 C6         17.4616  -25.6528  -41.5500 C.3       10 UNK        -0.0849 
      7 S7         18.6710  -27.0176  -41.5852 S.3       10 UNK        -0.2776 
      8 C8         17.6079  -28.4694  -41.8769 C.3       10 UNK         0.0316 
      9 C9         18.1542  -29.3219  -43.0137 C.ar      10 UNK        -0.0863 
     10 C10        18.6622  -30.6017  -42.7682 C.ar      10 UNK        -0.1009 
     11 C11        19.1690  -31.3755  -43.8178 C.ar      10 UNK        -0.0712 
     12 C12        19.1765  -30.8599  -45.1169 C.ar      10 UNK        -0.0894 
     13 C13        18.6923  -29.5733  -45.3693 C.ar      10 UNK        -0.0745 
     14 C14        18.1623  -28.8212  -44.3186 C.ar      10 UNK        -0.0972 
     15 C15        18.7899  -28.9646  -46.7616 C.3       10 UNK         0.0209 
     16 S16        20.5102  -28.8110  -47.3605 S.3       10 UNK        -0.2568 
     17 C17        21.4442  -28.1834  -45.9185 C.3       10 UNK        -0.0983 
     18 CA         21.6879  -26.6572  -45.9588 C.3       3 UNK         0.0876 
     19 N          20.4391  -25.8953  -45.8731 N.am      3 UNK        -0.4424 
     20 C          20.3166  -24.6064  -46.2152 C.2       2 UNK         0.4918 
     21 O          21.2444  -23.9290  -46.6600 O.2       2 UNK        -0.4875 
     22 CA         18.9262  -23.9596  -46.0775 C.3       2 UNK         0.0481 
     23 CB         18.2248  -23.9213  -47.4450 C.3       2 UNK        -0.1831 
     24 N          18.0436  -24.6211  -45.1127 N.am      2 UNK        -0.4498 
     25 C          18.1348  -24.5036  -43.7807 C.2       1 UNK         0.5027 
     26 O          18.9982  -23.8353  -43.2095 O.2       1 UNK        -0.4969 
     27 C          22.6507  -26.2574  -44.8239 C.2       3 UNK         0.5005 
     28 O          22.2068  -25.9905  -43.7050 O.2       3 UNK        -0.5279 
     29 N          23.9577  -26.2820  -45.1193 N.am      4 UNK        -0.4463 
     30 CA         25.0283  -26.0170  -44.1525 C.3       4 UNK         0.0283 
     31 CB         26.3305  -25.7103  -44.9103 C.3       4 UNK        -0.1875 
     32 C          25.2498  -27.1669  -43.1516 C.2       4 UNK         0.4949 
     33 O          25.7770  -26.9191  -42.0672 O.2       4 UNK        -0.5039 
     34 N          24.8660  -28.3956  -43.5324 N.am      5 UNK        -0.4663 
     35 CA         24.9772  -29.6030  -42.7081 C.3       5 UNK         0.0242 
     36 CB         24.6759  -30.8421  -43.5676 C.3       5 UNK        -0.1982 
     37 C          24.0739  -29.5553  -41.4653 C.2       5 UNK         0.5017 
     38 O          24.5587  -29.7967  -40.3592 O.2       5 UNK        -0.5012 
     39 N          22.7936  -29.2149  -41.6780 N.am      6 UNK        -0.4439 
     40 CA         21.7468  -28.9972  -40.6745 C.3       6 UNK         0.0297 
     41 CB         21.9310  -27.6062  -40.0284 C.3       6 UNK        -0.2006 
     42 C          21.6404  -30.1477  -39.6545 C.2       6 UNK         0.4892 
     43 O          21.1585  -31.2249  -40.0041 O.2       6 UNK        -0.5089 
     44 N          22.1229  -29.9206  -38.4250 N.am      7 UNK        -0.4243 
     45 CA         22.1620  -30.8931  -37.3285 C.3       7 UNK         0.0196 
     46 CB         22.6673  -30.1912  -36.0575 C.3       7 UNK        -0.2007 
     47 C          23.0001  -32.1548  -37.6155 C.2       7 UNK         0.5020 
     48 O          22.7921  -33.1685  -36.9486 O.2       7 UNK        -0.5147 
     49 N          23.9142  -32.0932  -38.5956 N.am      8 UNK        -0.4734 
     50 CA         24.7021  -33.2400  -39.0572 C.3       8 UNK         0.0238 
     51 CB         25.9160  -32.7414  -39.8580 C.3       8 UNK        -0.1912 
     52 C          23.8906  -34.2573  -39.8829 C.2       8 UNK         0.5038 
     53 O          24.3580  -35.3869  -40.0368 O.2       8 UNK        -0.5046 
     54 N          22.7164  -33.8614  -40.3942 N.am      9 UNK        -0.4200 
     55 CA         21.7965  -34.7227  -41.1543 C.3       9 UNK         0.0839 
     56 C          20.3532  -34.7524  -40.5821 C.2       9 UNK         0.5513 
     57 N          19.8974  -33.7402  -39.8553 N.am      9 UNK        -0.7519 
     58 O          19.6369  -35.7290  -40.7869 O.2       9 UNK        -0.4960 
     59 C59        21.8247  -34.4205  -42.6769 C.3       10 UNK        -0.0876 
     60 S60        21.4859  -32.6774  -43.1048 S.3       10 UNK        -0.2414 
     61 C61        19.7248  -32.7620  -43.5450 C.3       10 UNK         0.0169 
     62 H62        12.8608  -23.6720  -43.7186 H         1 UNK         0.0903 
     63 H63        13.8895  -22.6995  -42.6649 H         1 UNK         0.0903 
     64 H64        13.8579  -22.3847  -44.4013 H         1 UNK         0.0903 
     65 H65        15.7708  -23.7596  -42.0580 H         1 UNK         0.3096 
     66 H66        16.7220  -26.0949  -43.5081 H         1 UNK         0.1121 
     67 H67        16.5961  -25.9834  -40.9732 H         1 UNK         0.0849 
     68 H68        17.8898  -24.8210  -40.9874 H         1 UNK         0.0849 
     69 H69        16.5898  -28.1630  -42.1203 H         1 UNK         0.0865 
     70 H70        17.5400  -29.0472  -40.9539 H         1 UNK         0.0865 
     71 H71        18.6763  -30.9961  -41.7607 H         1 UNK         0.1346 
     72 H72        19.5926  -31.4441  -45.9264 H         1 UNK         0.1412 
     73 H73        17.7843  -27.8292  -44.5114 H         1 UNK         0.1426 
     74 H74        18.3259  -27.9776  -46.7876 H         1 UNK         0.0716 
     75 H75        18.2270  -29.5830  -47.4619 H         1 UNK         0.0716 
     76 H76        22.3978  -28.7148  -45.9289 H         1 UNK         0.0695 
     77 H77        20.9702  -28.4693  -44.9797 H         1 UNK         0.0695 
     78 H78        22.1634  -26.4120  -46.9115 H         1 UNK         0.0983 
     79 H79        19.6475  -26.3711  -45.4721 H         1 UNK         0.3095 
     80 H80        19.0773  -22.9290  -45.7496 H         1 UNK         0.0454 
     81 H81        18.0354  -24.9238  -47.8309 H         1 UNK         0.0851 
     82 H82        18.8351  -23.3987  -48.1830 H         1 UNK         0.0851 
     83 H83        17.2707  -23.3970  -47.3879 H         1 UNK         0.0851 
     84 H84        17.2350  -25.0988  -45.4911 H         1 UNK         0.2976 
     85 H85        24.2453  -26.5082  -46.0615 H         1 UNK         0.3116 
     86 H86        24.7562  -25.1303  -43.5755 H         1 UNK         0.0646 
     87 H87        26.6569  -26.5566  -45.5160 H         1 UNK         0.0847 
     88 H88        27.1394  -25.4772  -44.2162 H         1 UNK         0.0847 
     89 H89        26.2147  -24.8489  -45.5684 H         1 UNK         0.0847 
     90 H90        24.4670  -28.5042  -44.4523 H         1 UNK         0.3040 
     91 H91        26.0088  -29.6764  -42.3559 H         1 UNK         0.1015 
     92 H92        25.4164  -30.9639  -44.3582 H         1 UNK         0.0786 
     93 H93        23.6936  -30.7821  -44.0375 H         1 UNK         0.0786 
     94 H94        24.6919  -31.7533  -42.9682 H         1 UNK         0.0786 
     95 H95        22.5073  -29.0670  -42.6343 H         1 UNK         0.3172 
     96 H96        20.8022  -28.9924  -41.2183 H         1 UNK         0.0595 
     97 H97        22.9022  -27.4973  -39.5444 H         1 UNK         0.0839 
     98 H98        21.1567  -27.4083  -39.2858 H         1 UNK         0.0839 
     99 H99        21.8538  -26.8206  -40.7811 H         1 UNK         0.0839 
    100 H100       22.5382  -29.0187  -38.2425 H         1 UNK         0.2998 
    101 H101       21.1369  -31.2259  -37.1526 H         1 UNK         0.0822 
    102 H102       22.0264  -29.3527  -35.7841 H         1 UNK         0.0787 
    103 H103       22.6779  -30.8775  -35.2094 H         1 UNK         0.0787 
    104 H104       23.6828  -29.8131  -36.1833 H         1 UNK         0.0787 
    105 H105       24.0392  -31.2193  -39.1011 H         1 UNK         0.3055 
    106 H106       25.0749  -33.7693  -38.1772 H         1 UNK         0.1106 
    107 H107       26.5723  -33.5703  -40.1266 H         1 UNK         0.0828 
    108 H108       26.5101  -32.0317  -39.2820 H         1 UNK         0.0828 
    109 H109       25.6160  -32.2541  -40.7848 H         1 UNK         0.0828 
    110 H110       22.3905  -32.9175  -40.2222 H         1 UNK         0.2931 
    111 H111       22.1341  -35.7556  -41.0504 H         1 UNK         0.0412 
    112 H112       20.4182  -32.8694  -39.7890 H         1 UNK         0.3472 
    113 H113       18.9641  -33.7911  -39.4804 H         1 UNK         0.3472 
    114 H114       22.8148  -34.6615  -43.0660 H         1 UNK         0.0970 
    115 H115       21.1376  -35.0758  -43.2157 H         1 UNK         0.0970 
    116 H116       19.6001  -33.4004  -44.4210 H         1 UNK         0.0612 
    117 H117       19.1614  -33.2294  -42.7371 H         1 UNK         0.0612 
@<TRIPOS>BOND
     1    1    2 1    
     2    1   62 1    
     3    1   63 1    
     4    1   64 1    
     5    2    3 2    
     6    2    4 am   BACKBONE|DICT|INTERRES
     7    4    5 1    
     8    4   65 1    
     9    5    6 1    
    10    5   25 1    
    11    5   66 1    
    12    6    7 1    
    13    6   67 1    
    14    6   68 1    
    15    7    8 1    
    16    8    9 1    
    17    8   69 1    
    18    8   70 1    
    19    9   10 ar   
    20    9   14 ar   
    21   10   11 ar   
    22   10   71 1    
    23   11   12 ar   
    24   11   61 1    
    25   12   13 ar   
    26   12   72 1    
    27   13   14 ar   
    28   13   15 1    
    29   14   73 1    
    30   15   16 1    
    31   15   74 1    
    32   15   75 1    
    33   16   17 1    
    34   17   18 1    
    35   17   76 1    
    36   17   77 1    
    37   18   19 1    
    38   18   27 1    
    39   18   78 1    
    40   19   20 am   BACKBONE|DICT|INTERRES
    41   19   79 1    
    42   20   21 2    
    43   20   22 1    
    44   22   23 1    
    45   22   24 1    
    46   22   80 1    
    47   23   81 1    
    48   23   82 1    
    49   23   83 1    
    50   24   25 am   BACKBONE|DICT|INTERRES
    51   24   84 1    
    52   25   26 2    
    53   27   28 2    
    54   27   29 am   BACKBONE|DICT|INTERRES
    55   29   30 1    
    56   29   85 1    
    57   30   31 1    
    58   30   32 1    
    59   30   86 1    
    60   31   87 1    
    61   31   88 1    
    62   31   89 1    
    63   32   33 2    
    64   32   34 am   BACKBONE|DICT|INTERRES
    65   34   35 1    
    66   34   90 1    
    67   35   36 1    
    68   35   37 1    
    69   35   91 1    
    70   36   92 1    
    71   36   93 1    
    72   36   94 1    
    73   37   38 2    
    74   37   39 am   BACKBONE|DICT|INTERRES
    75   39   40 1    
    76   39   95 1    
    77   40   41 1    
    78   40   42 1    
    79   40   96 1    
    80   41   97 1    
    81   41   98 1    
    82   41   99 1    
    83   42   43 2    
    84   42   44 am   BACKBONE|DICT|INTERRES
    85   44   45 1    
    86   44  100 1    
    87   45   46 1    
    88   45   47 1    
    89   45  101 1    
    90   46  102 1    
    91   46  103 1    
    92   46  104 1    
    93   47   48 2    
    94   47   49 am   BACKBONE|DICT|INTERRES
    95   49   50 1    
    96   49  105 1    
    97   50   51 1    
    98   50   52 1    
    99   50  106 1    
   100   51  107 1    
   101   51  108 1    
   102   51  109 1    
   103   52   53 2    
   104   52   54 am   BACKBONE|DICT|INTERRES
   105   54   55 1    
   106   54  110 1    
   107   55   56 1    
   108   55   59 1    
   109   55  111 1    
   110   56   57 am   BACKBONE|DICT|INTERRES
   111   56   58 2    
   112   57  112 1    
   113   57  113 1    
   114   59   60 1    
   115   59  114 1    
   116   59  115 1    
   117   60   61 1    
   118   61  116 1    
   119   61  117 1    
@<TRIPOS>SUBSTRUCTURE
     1 UNK         1 GROUP             0       ****    0 ROOT    
