@<TRIPOS>MOLECULE
3R8
117   119    1
SMALL
USER_CHARGES


@<TRIPOS>ATOM
      1 CA         19.8874  -24.4747  -39.2213 C.3       0 UNK        -0.2013 
      2 C          19.3626  -24.7362  -40.6251 C.2       0 UNK         0.4866 
      3 O          18.9435  -23.7975  -41.3028 O.2       0 UNK        -0.5176 
      4 N          19.3763  -26.0000  -41.0684 N.am      1 UNK        -0.4884 
      5 CA         18.9737  -26.4060  -42.4173 C.3       1 UNK         0.0853 
      6 C6         18.6989  -27.9266  -42.5151 C.3       10 UNK        -0.0849 
      7 S7         17.0988  -28.3606  -41.7543 S.3       10 UNK        -0.2776 
      8 C8         17.0786  -30.1865  -41.8358 C.3       10 UNK         0.0316 
      9 C9         17.5427  -30.7642  -43.1706 C.ar      10 UNK        -0.0863 
     10 C10        18.5068  -31.7766  -43.1844 C.ar      10 UNK        -0.1009 
     11 C11        18.9737  -32.3156  -44.3897 C.ar      10 UNK        -0.0712 
     12 C12        18.4620  -31.8168  -45.5910 C.ar      10 UNK        -0.0894 
     13 C13        17.5099  -30.7917  -45.5964 C.ar      10 UNK        -0.0745 
     14 C14        17.0303  -30.2910  -44.3834 C.ar      10 UNK        -0.0972 
     15 C15        17.0567  -30.1792  -46.9157 C.3       10 UNK         0.0209 
     16 S16        17.9070  -28.5981  -47.2636 S.3       10 UNK        -0.2568 
     17 C17        19.6573  -29.0809  -47.0693 C.3       10 UNK        -0.0983 
     18 CA         20.6875  -27.9406  -47.2633 C.3       3 UNK         0.0876 
     19 N          20.3334  -26.7567  -46.4760 N.am      3 UNK        -0.4424 
     20 C          20.9790  -25.5833  -46.4705 C.2       2 UNK         0.4918 
     21 O          21.9050  -25.3087  -47.2338 O.2       2 UNK        -0.4875 
     22 CA         20.5253  -24.5410  -45.4283 C.3       2 UNK         0.0481 
     23 CB         19.7912  -23.3792  -46.1174 C.3       2 UNK        -0.1831 
     24 N          19.6733  -25.0757  -44.3564 N.am      2 UNK        -0.4498 
     25 C          20.0450  -25.9800  -43.4373 C.2       1 UNK         0.5027 
     26 O          21.1585  -26.5044  -43.3985 O.2       1 UNK        -0.4969 
     27 C          22.0833  -28.4996  -46.9024 C.2       3 UNK         0.5005 
     28 O          22.7178  -29.1321  -47.7486 O.2       3 UNK        -0.5279 
     29 N          22.5037  -28.3039  -45.6454 N.am      4 UNK        -0.4463 
     30 CA         23.7155  -28.8557  -45.0499 C.3       4 UNK         0.0283 
     31 CB         23.3226  -30.0739  -44.1885 C.3       4 UNK        -0.1875 
     32 C          24.4332  -27.7631  -44.2413 C.2       4 UNK         0.4949 
     33 O          24.1447  -26.5762  -44.4068 O.2       4 UNK        -0.5039 
     34 N          25.3782  -28.1779  -43.3892 N.am      5 UNK        -0.4663 
     35 CA         26.1320  -27.2890  -42.5008 C.3       5 UNK         0.0242 
     36 CB         27.4155  -28.0072  -42.0513 C.3       5 UNK        -0.1982 
     37 C          25.3274  -26.8176  -41.2747 C.2       5 UNK         0.5017 
     38 O          25.6980  -25.8083  -40.6737 O.2       5 UNK        -0.5012 
     39 N          24.2700  -27.5528  -40.9086 N.am      6 UNK        -0.4439 
     40 CA         23.4331  -27.3270  -39.7341 C.3       6 UNK         0.0297 
     41 CB         24.2013  -27.7298  -38.4561 C.3       6 UNK        -0.2006 
     42 C          22.1364  -28.1362  -39.8739 C.2       6 UNK         0.4892 
     43 O          21.9737  -28.8887  -40.8383 O.2       6 UNK        -0.5089 
     44 N          21.2446  -27.9809  -38.8849 N.am      7 UNK        -0.4243 
     45 CA         20.0496  -28.8071  -38.6917 C.3       7 UNK         0.0196 
     46 CB         19.1927  -28.1991  -37.5693 C.3       7 UNK        -0.2007 
     47 C          20.4106  -30.2695  -38.3722 C.2       7 UNK         0.5020 
     48 O          21.5313  -30.5516  -37.9410 O.2       7 UNK        -0.5147 
     49 N          19.4568  -31.1780  -38.6245 N.am      8 UNK        -0.4734 
     50 CA         19.6031  -32.6431  -38.5487 C.3       8 UNK         0.0238 
     51 CB         19.7902  -33.1032  -37.0867 C.3       8 UNK        -0.1912 
     52 C          20.6966  -33.1952  -39.4914 C.2       8 UNK         0.5038 
     53 O          21.2842  -34.2407  -39.2089 O.2       8 UNK        -0.5046 
     54 N          20.9413  -32.4649  -40.5880 N.am      9 UNK        -0.4200 
     55 CA         21.9755  -32.6970  -41.6063 C.3       9 UNK         0.0839 
     56 C          23.4273  -32.4067  -41.1166 C.2       9 UNK         0.5513 
     57 N          23.6324  -31.7542  -39.9775 N.am      9 UNK        -0.7519 
     58 O          24.3895  -32.7533  -41.7964 O.2       9 UNK        -0.4960 
     59 C59        21.8503  -34.0665  -42.3397 C.3       10 UNK        -0.0876 
     60 S60        20.1720  -34.4496  -42.9580 S.3       10 UNK        -0.2414 
     61 C61        20.0608  -33.3922  -44.4441 C.3       10 UNK         0.0169 
     62 H62        19.0843  -24.1046  -38.5847 H         1 UNK         0.0903 
     63 H63        20.2985  -25.3707  -38.7615 H         1 UNK         0.0903 
     64 H64        20.6735  -23.7207  -39.2501 H         1 UNK         0.0903 
     65 H65        19.7498  -26.7337  -40.4850 H         1 UNK         0.3096 
     66 H66        18.0471  -25.8820  -42.6649 H         1 UNK         0.1121 
     67 H67        18.6600  -28.2365  -43.5609 H         1 UNK         0.0849 
     68 H68        19.5028  -28.5074  -42.0592 H         1 UNK         0.0849 
     69 H69        17.6960  -30.5664  -41.0219 H         1 UNK         0.0865 
     70 H70        16.0647  -30.5354  -41.6360 H         1 UNK         0.0865 
     71 H71        18.8954  -32.1412  -42.2472 H         1 UNK         0.1346 
     72 H72        18.8376  -32.1999  -46.5302 H         1 UNK         0.1412 
     73 H73        16.2974  -29.4955  -44.3843 H         1 UNK         0.1426 
     74 H74        15.9797  -30.0073  -46.8914 H         1 UNK         0.0716 
     75 H75        17.2378  -30.8701  -47.7406 H         1 UNK         0.0716 
     76 H76        19.8623  -29.9006  -47.7610 H         1 UNK         0.0695 
     77 H77        19.7722  -29.4885  -46.0635 H         1 UNK         0.0695 
     78 H78        20.7030  -27.6497  -48.3156 H         1 UNK         0.0983 
     79 H79        19.5484  -26.8683  -45.8530 H         1 UNK         0.3095 
     80 H80        21.4287  -24.1440  -44.9609 H         1 UNK         0.0454 
     81 H81        20.4114  -22.9305  -46.8949 H         1 UNK         0.0851 
     82 H82        19.5444  -22.5881  -45.4092 H         1 UNK         0.0851 
     83 H83        18.8658  -23.7098  -46.5907 H         1 UNK         0.0851 
     84 H84        18.7412  -24.6894  -44.2999 H         1 UNK         0.2976 
     85 H85        21.9760  -27.6851  -45.0372 H         1 UNK         0.3116 
     86 H86        24.4059  -29.1789  -45.8315 H         1 UNK         0.0646 
     87 H87        24.1971  -30.5993  -43.8044 H         1 UNK         0.0847 
     88 H88        22.7516  -30.7993  -44.7684 H         1 UNK         0.0847 
     89 H89        22.7099  -29.7788  -43.3355 H         1 UNK         0.0847 
     90 H90        25.5795  -29.1655  -43.3224 H         1 UNK         0.3040 
     91 H91        26.4194  -26.3965  -43.0618 H         1 UNK         0.1015 
     92 H92        28.0198  -27.3625  -41.4112 H         1 UNK         0.0786 
     93 H93        28.0353  -28.2848  -42.9042 H         1 UNK         0.0786 
     94 H94        27.1951  -28.9131  -41.4851 H         1 UNK         0.0786 
     95 H95        23.9707  -28.3292  -41.4856 H         1 UNK         0.3172 
     96 H96        23.1669  -26.2689  -39.6890 H         1 UNK         0.0595 
     97 H97        24.4539  -28.7911  -38.4616 H         1 UNK         0.0839 
     98 H98        23.6149  -27.5411  -37.5566 H         1 UNK         0.0839 
     99 H99        25.1290  -27.1680  -38.3477 H         1 UNK         0.0839 
    100 H100       21.4990  -27.3877  -38.1088 H         1 UNK         0.2998 
    101 H101       19.4740  -28.7953  -39.6188 H         1 UNK         0.0822 
    102 H102       18.8766  -27.1848  -37.8121 H         1 UNK         0.0787 
    103 H103       19.7331  -28.1665  -36.6222 H         1 UNK         0.0787 
    104 H104       18.2862  -28.7831  -37.4050 H         1 UNK         0.0787 
    105 H105       18.5527  -30.8477  -38.9329 H         1 UNK         0.3055 
    106 H106       18.6638  -33.0675  -38.9076 H         1 UNK         0.1106 
    107 H107       20.7508  -32.7853  -36.6806 H         1 UNK         0.0828 
    108 H108       19.0056  -32.7073  -36.4421 H         1 UNK         0.0828 
    109 H109       19.7513  -34.1905  -37.0104 H         1 UNK         0.0828 
    110 H110       20.4418  -31.5946  -40.6850 H         1 UNK         0.2931 
    111 H111       21.7881  -31.9271  -42.3548 H         1 UNK         0.0412 
    112 H112       24.5775  -31.5737  -39.6807 H         1 UNK         0.3472 
    113 H113       22.8562  -31.4366  -39.4104 H         1 UNK         0.3472 
    114 H114       22.5437  -34.1129  -43.1814 H         1 UNK         0.0970 
    115 H115       22.1491  -34.8755  -41.6713 H         1 UNK         0.0970 
    116 H116       19.8809  -34.0471  -45.2981 H         1 UNK         0.0612 
    117 H117       21.0185  -32.9049  -44.6298 H         1 UNK         0.0612 
@<TRIPOS>BOND
     1    1    2 1    
     2    1   62 1    
     3    1   63 1    
     4    1   64 1    
     5    2    3 2    
     6    2    4 am   BACKBONE|DICT|INTERRES
     7    4    5 1    
     8    4   65 1    
     9    5    6 1    
    10    5   25 1    
    11    5   66 1    
    12    6    7 1    
    13    6   67 1    
    14    6   68 1    
    15    7    8 1    
    16    8    9 1    
    17    8   69 1    
    18    8   70 1    
    19    9   10 ar   
    20    9   14 ar   
    21   10   11 ar   
    22   10   71 1    
    23   11   12 ar   
    24   11   61 1    
    25   12   13 ar   
    26   12   72 1    
    27   13   14 ar   
    28   13   15 1    
    29   14   73 1    
    30   15   16 1    
    31   15   74 1    
    32   15   75 1    
    33   16   17 1    
    34   17   18 1    
    35   17   76 1    
    36   17   77 1    
    37   18   19 1    
    38   18   27 1    
    39   18   78 1    
    40   19   20 am   BACKBONE|DICT|INTERRES
    41   19   79 1    
    42   20   21 2    
    43   20   22 1    
    44   22   23 1    
    45   22   24 1    
    46   22   80 1    
    47   23   81 1    
    48   23   82 1    
    49   23   83 1    
    50   24   25 am   BACKBONE|DICT|INTERRES
    51   24   84 1    
    52   25   26 2    
    53   27   28 2    
    54   27   29 am   BACKBONE|DICT|INTERRES
    55   29   30 1    
    56   29   85 1    
    57   30   31 1    
    58   30   32 1    
    59   30   86 1    
    60   31   87 1    
    61   31   88 1    
    62   31   89 1    
    63   32   33 2    
    64   32   34 am   BACKBONE|DICT|INTERRES
    65   34   35 1    
    66   34   90 1    
    67   35   36 1    
    68   35   37 1    
    69   35   91 1    
    70   36   92 1    
    71   36   93 1    
    72   36   94 1    
    73   37   38 2    
    74   37   39 am   BACKBONE|DICT|INTERRES
    75   39   40 1    
    76   39   95 1    
    77   40   41 1    
    78   40   42 1    
    79   40   96 1    
    80   41   97 1    
    81   41   98 1    
    82   41   99 1    
    83   42   43 2    
    84   42   44 am   BACKBONE|DICT|INTERRES
    85   44   45 1    
    86   44  100 1    
    87   45   46 1    
    88   45   47 1    
    89   45  101 1    
    90   46  102 1    
    91   46  103 1    
    92   46  104 1    
    93   47   48 2    
    94   47   49 am   BACKBONE|DICT|INTERRES
    95   49   50 1    
    96   49  105 1    
    97   50   51 1    
    98   50   52 1    
    99   50  106 1    
   100   51  107 1    
   101   51  108 1    
   102   51  109 1    
   103   52   53 2    
   104   52   54 am   BACKBONE|DICT|INTERRES
   105   54   55 1    
   106   54  110 1    
   107   55   56 1    
   108   55   59 1    
   109   55  111 1    
   110   56   57 am   BACKBONE|DICT|INTERRES
   111   56   58 2    
   112   57  112 1    
   113   57  113 1    
   114   59   60 1    
   115   59  114 1    
   116   59  115 1    
   117   60   61 1    
   118   61  116 1    
   119   61  117 1    
@<TRIPOS>SUBSTRUCTURE
     1 UNK         1 GROUP             0       ****    0 ROOT    
