@<TRIPOS>MOLECULE
3R8
117   119    1
SMALL
USER_CHARGES


@<TRIPOS>ATOM
      1 CA         18.6875  -22.0409  -47.1461 C.3       0 UNK        -0.2013 
      2 C          18.6570  -23.4473  -47.7251 C.2       0 UNK         0.4866 
      3 O          19.3055  -23.7075  -48.7385 O.2       0 UNK        -0.5176 
      4 N          17.9141  -24.3601  -47.0861 N.am      1 UNK        -0.4884 
      5 CA         17.7563  -25.7611  -47.5037 C.3       1 UNK         0.0853 
      6 C6         16.3700  -26.3162  -47.0810 C.3       10 UNK        -0.0849 
      7 S7         16.1415  -26.4366  -45.2702 S.3       10 UNK        -0.2776 
      8 C8         15.9118  -28.2398  -45.0562 C.3       10 UNK         0.0316 
      9 C9         16.2570  -28.7636  -43.6617 C.ar      10 UNK        -0.0863 
     10 C10        16.7203  -30.0772  -43.5291 C.ar      10 UNK        -0.1009 
     11 C11        17.1104  -30.5792  -42.2835 C.ar      10 UNK        -0.0712 
     12 C12        17.0016  -29.7688  -41.1502 C.ar      10 UNK        -0.0894 
     13 C13        16.5650  -28.4459  -41.2711 C.ar      10 UNK        -0.0745 
     14 C14        16.1627  -27.9608  -42.5183 C.ar      10 UNK        -0.0972 
     15 C15        16.6338  -27.5030  -40.0806 C.3       10 UNK         0.0209 
     16 S16        18.3636  -27.1476  -39.6138 S.3       10 UNK        -0.2568 
     17 C17        19.1179  -26.5415  -41.1742 C.3       10 UNK        -0.0983 
     18 CA         19.7514  -27.6184  -42.1088 C.3       3 UNK         0.0876 
     19 N          20.2470  -26.9950  -43.3371 N.am      3 UNK        -0.4424 
     20 C          20.5311  -27.6455  -44.4724 C.2       2 UNK         0.4918 
     21 O          20.3849  -28.8571  -44.6321 O.2       2 UNK        -0.4875 
     22 CA         21.0205  -26.7597  -45.6309 C.3       2 UNK         0.0481 
     23 CB         21.9285  -27.5099  -46.6284 C.3       2 UNK        -0.1831 
     24 N          19.8866  -26.1109  -46.2997 N.am      2 UNK        -0.4498 
     25 C          18.9218  -26.6742  -47.0483 C.2       1 UNK         0.5027 
     26 O          18.9082  -27.8593  -47.3831 O.2       1 UNK        -0.4969 
     27 C          20.8409  -28.4646  -41.4125 C.2       3 UNK         0.5005 
     28 O          22.0390  -28.2270  -41.5912 O.2       3 UNK        -0.5279 
     29 N          20.3895  -29.3978  -40.5629 N.am      4 UNK        -0.4463 
     30 CA         21.1836  -30.2485  -39.6709 C.3       4 UNK         0.0283 
     31 CB         20.2338  -31.1507  -38.8675 C.3       4 UNK        -0.1875 
     32 C          22.1041  -29.4727  -38.7116 C.2       4 UNK         0.4949 
     33 O          23.1118  -30.0248  -38.2745 O.2       4 UNK        -0.5039 
     34 N          21.7878  -28.1964  -38.4490 N.am      5 UNK        -0.4663 
     35 CA         22.6432  -27.2389  -37.7412 C.3       5 UNK         0.0242 
     36 CB         21.8722  -25.9214  -37.5620 C.3       5 UNK        -0.1982 
     37 C          23.9962  -26.9815  -38.4369 C.2       5 UNK         0.5017 
     38 O          24.9648  -26.6513  -37.7526 O.2       5 UNK        -0.5012 
     39 N          24.0497  -27.1643  -39.7653 N.am      6 UNK        -0.4439 
     40 CA         25.2700  -27.1141  -40.5752 C.3       6 UNK         0.0297 
     41 CB         24.9368  -26.4618  -41.9296 C.3       6 UNK        -0.2006 
     42 C          25.8998  -28.5082  -40.7795 C.2       6 UNK         0.4892 
     43 O          26.8744  -28.6122  -41.5248 O.2       6 UNK        -0.5089 
     44 N          25.3316  -29.5501  -40.1475 N.am      7 UNK        -0.4243 
     45 CA         25.6922  -30.9724  -40.2431 C.3       7 UNK         0.0196 
     46 CB         27.1117  -31.2227  -39.6900 C.3       7 UNK        -0.2007 
     47 C          25.4829  -31.5760  -41.6474 C.2       7 UNK         0.5020 
     48 O          26.1212  -32.5744  -41.9836 O.2       7 UNK        -0.5147 
     49 N          24.5982  -30.9656  -42.4478 N.am      8 UNK        -0.4734 
     50 CA         24.3270  -31.3639  -43.8304 C.3       8 UNK         0.0238 
     51 CB         23.7142  -30.1704  -44.5778 C.3       8 UNK        -0.1912 
     52 C          23.4166  -32.5980  -43.9436 C.2       8 UNK         0.5038 
     53 O          23.5943  -33.3922  -44.8683 O.2       8 UNK        -0.5046 
     54 N          22.4526  -32.7233  -43.0241 N.am      9 UNK        -0.4200 
     55 CA         21.4577  -33.8062  -42.9928 C.3       9 UNK         0.0839 
     56 C          22.0657  -35.1359  -42.4765 C.2       9 UNK         0.5513 
     57 N          21.6504  -36.2654  -43.0327 N.am      9 UNK        -0.7519 
     58 O          22.8719  -35.1547  -41.5487 O.2       9 UNK        -0.4960 
     59 C59        20.2032  -33.4133  -42.1683 C.3       10 UNK        -0.0876 
     60 S60        19.4663  -31.8592  -42.7707 S.3       10 UNK        -0.2414 
     61 C61        17.7480  -31.9565  -42.1844 C.3       10 UNK         0.0169 
     62 H62        18.0767  -21.9557  -46.2474 H         1 UNK         0.0903 
     63 H63        19.7093  -21.7621  -46.8896 H         1 UNK         0.0903 
     64 H64        18.3133  -21.3262  -47.8786 H         1 UNK         0.0903 
     65 H65        17.4002  -24.0996  -46.2547 H         1 UNK         0.3096 
     66 H66        17.7820  -25.7865  -48.5958 H         1 UNK         0.1121 
     67 H67        15.5838  -25.6703  -47.4752 H         1 UNK         0.0849 
     68 H68        16.1968  -27.2877  -47.5475 H         1 UNK         0.0849 
     69 H69        14.8788  -28.4994  -45.2909 H         1 UNK         0.0865 
     70 H70        16.5382  -28.7560  -45.7859 H         1 UNK         0.0865 
     71 H71        16.8278  -30.7009  -44.4065 H         1 UNK         0.1346 
     72 H72        17.3216  -30.1410  -40.1865 H         1 UNK         0.1412 
     73 H73        15.8280  -26.9364  -42.6008 H         1 UNK         0.1426 
     74 H74        16.1177  -27.9509  -39.2303 H         1 UNK         0.0716 
     75 H75        16.1215  -26.5634  -40.2936 H         1 UNK         0.0716 
     76 H76        18.3539  -25.9863  -41.7212 H         1 UNK         0.0695 
     77 H77        19.8746  -25.8043  -40.8994 H         1 UNK         0.0695 
     78 H78        18.9752  -28.3137  -42.4241 H         1 UNK         0.0983 
     79 H79        20.4184  -26.0020  -43.2919 H         1 UNK         0.3095 
     80 H80        21.6201  -25.9566  -45.1993 H         1 UNK         0.0454 
     81 H81        22.8368  -27.8543  -46.1347 H         1 UNK         0.0851 
     82 H82        22.2331  -26.8636  -47.4513 H         1 UNK         0.0851 
     83 H83        21.4425  -28.3880  -47.0542 H         1 UNK         0.0851 
     84 H84        19.7715  -25.1274  -46.1006 H         1 UNK         0.2976 
     85 H85        19.3875  -29.4895  -40.4793 H         1 UNK         0.3116 
     86 H86        21.8168  -30.8782  -40.2985 H         1 UNK         0.0646 
     87 H87        19.5892  -30.5694  -38.2066 H         1 UNK         0.0847 
     88 H88        19.5933  -31.7441  -39.5183 H         1 UNK         0.0847 
     89 H89        20.7941  -31.8485  -38.2434 H         1 UNK         0.0847 
     90 H90        20.9273  -27.8346  -38.8360 H         1 UNK         0.3040 
     91 H91        22.8594  -27.6527  -36.7537 H         1 UNK         0.1015 
     92 H92        22.4692  -25.1904  -37.0147 H         1 UNK         0.0786 
     93 H93        20.9516  -26.0731  -36.9979 H         1 UNK         0.0786 
     94 H94        21.6078  -25.4746  -38.5215 H         1 UNK         0.0786 
     95 H95        23.2085  -27.4554  -40.2592 H         1 UNK         0.3172 
     96 H96        26.0169  -26.4919  -40.0783 H         1 UNK         0.0595 
     97 H97        24.2510  -27.0731  -42.5172 H         1 UNK         0.0839 
     98 H98        25.8375  -26.3201  -42.5284 H         1 UNK         0.0839 
     99 H99        24.4816  -25.4803  -41.7969 H         1 UNK         0.0839 
    100 H100       24.5486  -29.3614  -39.5307 H         1 UNK         0.2998 
    101 H101       24.9948  -31.5014  -39.5921 H         1 UNK         0.0822 
    102 H102       27.3181  -32.2906  -39.6095 H         1 UNK         0.0787 
    103 H103       27.2297  -30.7964  -38.6938 H         1 UNK         0.0787 
    104 H104       27.8798  -30.7926  -40.3333 H         1 UNK         0.0787 
    105 H105       24.1233  -30.1424  -42.1041 H         1 UNK         0.3055 
    106 H106       25.2751  -31.6143  -44.3126 H         1 UNK         0.1106 
    107 H107       22.7873  -29.8398  -44.1088 H         1 UNK         0.0828 
    108 H108       24.3991  -29.3225  -44.6002 H         1 UNK         0.0828 
    109 H109       23.4830  -30.4297  -45.6120 H         1 UNK         0.0828 
    110 H110       22.3856  -32.0317  -42.2949 H         1 UNK         0.2931 
    111 H111       21.1285  -33.9689  -44.0217 H         1 UNK         0.0412 
    112 H112       22.0213  -37.1419  -42.6992 H         1 UNK         0.3472 
    113 H113       20.9822  -36.2601  -43.7882 H         1 UNK         0.3472 
    114 H114       19.4507  -34.2023  -42.2239 H         1 UNK         0.0970 
    115 H115       20.4551  -33.2989  -41.1130 H         1 UNK         0.0970 
    116 H116       17.7277  -32.3186  -41.1554 H         1 UNK         0.0612 
    117 H117       17.1930  -32.6768  -42.7871 H         1 UNK         0.0612 
@<TRIPOS>BOND
     1    1    2 1    
     2    1   62 1    
     3    1   63 1    
     4    1   64 1    
     5    2    3 2    
     6    2    4 am   BACKBONE|DICT|INTERRES
     7    4    5 1    
     8    4   65 1    
     9    5    6 1    
    10    5   25 1    
    11    5   66 1    
    12    6    7 1    
    13    6   67 1    
    14    6   68 1    
    15    7    8 1    
    16    8    9 1    
    17    8   69 1    
    18    8   70 1    
    19    9   10 ar   
    20    9   14 ar   
    21   10   11 ar   
    22   10   71 1    
    23   11   12 ar   
    24   11   61 1    
    25   12   13 ar   
    26   12   72 1    
    27   13   14 ar   
    28   13   15 1    
    29   14   73 1    
    30   15   16 1    
    31   15   74 1    
    32   15   75 1    
    33   16   17 1    
    34   17   18 1    
    35   17   76 1    
    36   17   77 1    
    37   18   19 1    
    38   18   27 1    
    39   18   78 1    
    40   19   20 am   BACKBONE|DICT|INTERRES
    41   19   79 1    
    42   20   21 2    
    43   20   22 1    
    44   22   23 1    
    45   22   24 1    
    46   22   80 1    
    47   23   81 1    
    48   23   82 1    
    49   23   83 1    
    50   24   25 am   BACKBONE|DICT|INTERRES
    51   24   84 1    
    52   25   26 2    
    53   27   28 2    
    54   27   29 am   BACKBONE|DICT|INTERRES
    55   29   30 1    
    56   29   85 1    
    57   30   31 1    
    58   30   32 1    
    59   30   86 1    
    60   31   87 1    
    61   31   88 1    
    62   31   89 1    
    63   32   33 2    
    64   32   34 am   BACKBONE|DICT|INTERRES
    65   34   35 1    
    66   34   90 1    
    67   35   36 1    
    68   35   37 1    
    69   35   91 1    
    70   36   92 1    
    71   36   93 1    
    72   36   94 1    
    73   37   38 2    
    74   37   39 am   BACKBONE|DICT|INTERRES
    75   39   40 1    
    76   39   95 1    
    77   40   41 1    
    78   40   42 1    
    79   40   96 1    
    80   41   97 1    
    81   41   98 1    
    82   41   99 1    
    83   42   43 2    
    84   42   44 am   BACKBONE|DICT|INTERRES
    85   44   45 1    
    86   44  100 1    
    87   45   46 1    
    88   45   47 1    
    89   45  101 1    
    90   46  102 1    
    91   46  103 1    
    92   46  104 1    
    93   47   48 2    
    94   47   49 am   BACKBONE|DICT|INTERRES
    95   49   50 1    
    96   49  105 1    
    97   50   51 1    
    98   50   52 1    
    99   50  106 1    
   100   51  107 1    
   101   51  108 1    
   102   51  109 1    
   103   52   53 2    
   104   52   54 am   BACKBONE|DICT|INTERRES
   105   54   55 1    
   106   54  110 1    
   107   55   56 1    
   108   55   59 1    
   109   55  111 1    
   110   56   57 am   BACKBONE|DICT|INTERRES
   111   56   58 2    
   112   57  112 1    
   113   57  113 1    
   114   59   60 1    
   115   59  114 1    
   116   59  115 1    
   117   60   61 1    
   118   61  116 1    
   119   61  117 1    
@<TRIPOS>SUBSTRUCTURE
     1 UNK         1 GROUP             0       ****    0 ROOT    
