@<TRIPOS>MOLECULE
3R8
117   119    1
SMALL
USER_CHARGES


@<TRIPOS>ATOM
      1 CA         14.8412  -22.4331  -43.7099 C.3       0 UNK        -0.2013 
      2 C          15.6042  -23.2059  -44.7751 C.2       0 UNK         0.4866 
      3 O          15.8797  -22.6644  -45.8459 O.2       0 UNK        -0.5176 
      4 N          15.9472  -24.4693  -44.4910 N.am      1 UNK        -0.4884 
      5 CA         16.6629  -25.3712  -45.4056 C.3       1 UNK         0.0853 
      6 C6         16.6402  -26.8430  -44.9118 C.3       10 UNK        -0.0849 
      7 S7         14.9957  -27.4755  -44.4463 S.3       10 UNK        -0.2776 
      8 C8         15.2899  -29.2828  -44.4509 C.3       10 UNK         0.0316 
      9 C9         16.4869  -29.7548  -43.6190 C.ar      10 UNK        -0.0863 
     10 C10        17.2450  -30.8422  -44.0717 C.ar      10 UNK        -0.1009 
     11 C11        18.3368  -31.3122  -43.3341 C.ar      10 UNK        -0.0712 
     12 C12        18.6685  -30.6860  -42.1309 C.ar      10 UNK        -0.0894 
     13 C13        17.9510  -29.5764  -41.6851 C.ar      10 UNK        -0.0745 
     14 C14        16.8408  -29.1359  -42.4120 C.ar      10 UNK        -0.0972 
     15 C15        18.4131  -28.8311  -40.4438 C.3       10 UNK         0.0209 
     16 S16        19.3459  -27.3252  -40.8782 S.3       10 UNK        -0.2568 
     17 C17        20.7708  -27.9641  -41.8364 C.3       10 UNK        -0.0983 
     18 CA         20.5604  -27.8748  -43.3771 C.3       3 UNK         0.0876 
     19 N          20.1544  -26.5344  -43.8085 N.am      3 UNK        -0.4424 
     20 C          20.8993  -25.4232  -43.9057 C.2       2 UNK         0.4918 
     21 O          22.1041  -25.3770  -43.6485 O.2       2 UNK        -0.4875 
     22 CA         20.1640  -24.1301  -44.3282 C.3       2 UNK         0.0481 
     23 CB         20.8742  -23.4160  -45.4963 C.3       2 UNK        -0.1831 
     24 N          18.7255  -24.3274  -44.5841 N.am      2 UNK        -0.4498 
     25 C          18.1385  -24.9661  -45.6117 C.2       1 UNK         0.5027 
     26 O          18.7240  -25.3260  -46.6323 O.2       1 UNK        -0.4969 
     27 C          21.7457  -28.3749  -44.2353 C.2       3 UNK         0.5005 
     28 O          21.6750  -28.2765  -45.4631 O.2       3 UNK        -0.5279 
     29 N          22.8235  -28.8434  -43.5991 N.am      4 UNK        -0.4463 
     30 CA         24.1403  -29.0231  -44.2061 C.3       4 UNK         0.0283 
     31 CB         24.5082  -30.5182  -44.1824 C.3       4 UNK        -0.1875 
     32 C          25.1215  -28.1455  -43.4130 C.2       4 UNK         0.4949 
     33 O          26.1179  -28.6484  -42.8930 O.2       4 UNK        -0.5039 
     34 N          24.7511  -26.8660  -43.2306 N.am      5 UNK        -0.4663 
     35 CA         25.3004  -25.8628  -42.3010 C.3       5 UNK         0.0242 
     36 CB         26.8124  -25.6362  -42.4977 C.3       5 UNK        -0.1982 
     37 C          24.9512  -26.1593  -40.8295 C.2       5 UNK         0.5017 
     38 O          24.5533  -25.2477  -40.1040 O.2       5 UNK        -0.5012 
     39 N          25.0576  -27.4315  -40.4402 N.am      6 UNK        -0.4439 
     40 CA         24.4963  -28.0326  -39.2357 C.3       6 UNK         0.0297 
     41 CB         25.6463  -28.6064  -38.3906 C.3       6 UNK        -0.2006 
     42 C          23.5326  -29.1471  -39.6715 C.2       6 UNK         0.4892 
     43 O          23.4921  -29.5029  -40.8537 O.2       6 UNK        -0.5089 
     44 N          22.7916  -29.7202  -38.7165 N.am      7 UNK        -0.4243 
     45 CA         21.8710  -30.8454  -38.9288 C.3       7 UNK         0.0196 
     46 CB         20.8360  -30.8626  -37.7884 C.3       7 UNK        -0.2007 
     47 C          22.6060  -32.1960  -39.0884 C.2       7 UNK         0.5020 
     48 O          22.2713  -33.1667  -38.4081 O.2       7 UNK        -0.5147 
     49 N          23.6173  -32.2277  -39.9650 N.am      8 UNK        -0.4734 
     50 CA         24.4478  -33.4002  -40.2499 C.3       8 UNK         0.0238 
     51 CB         25.8142  -32.9349  -40.7795 C.3       8 UNK        -0.1912 
     52 C          23.7834  -34.3712  -41.2393 C.2       8 UNK         0.5038 
     53 O          24.0394  -35.5738  -41.1632 O.2       8 UNK        -0.5046 
     54 N          22.9546  -33.8387  -42.1462 N.am      9 UNK        -0.4200 
     55 CA         22.1260  -34.6067  -43.0849 C.3       9 UNK         0.0839 
     56 C          20.9463  -35.3410  -42.3885 C.2       9 UNK         0.5513 
     57 N          20.4289  -36.3955  -43.0043 N.am      9 UNK        -0.7519 
     58 O          20.4752  -34.9521  -41.3218 O.2       9 UNK        -0.4960 
     59 C59        21.6580  -33.7418  -44.2894 C.3       10 UNK        -0.0876 
     60 S60        20.9439  -32.1226  -43.8387 S.3       10 UNK        -0.2414 
     61 C61        19.1590  -32.4957  -43.8273 C.3       10 UNK         0.0169 
     62 H62        13.8754  -22.1123  -44.0993 H         1 UNK         0.0903 
     63 H63        14.6641  -23.0336  -42.8179 H         1 UNK         0.0903 
     64 H64        15.4017  -21.5460  -43.4160 H         1 UNK         0.0903 
     65 H65        15.6574  -24.8797  -43.6137 H         1 UNK         0.3096 
     66 H66        16.1702  -25.3242  -46.3796 H         1 UNK         0.1121 
     67 H67        17.2780  -26.9566  -44.0342 H         1 UNK         0.0849 
     68 H68        17.0554  -27.5017  -45.6781 H         1 UNK         0.0849 
     69 H69        14.3935  -29.7815  -44.0804 H         1 UNK         0.0865 
     70 H70        15.4077  -29.5998  -45.4885 H         1 UNK         0.0865 
     71 H71        16.9820  -31.3289  -45.0012 H         1 UNK         0.1346 
     72 H72        19.5161  -31.0416  -41.5619 H         1 UNK         0.1412 
     73 H73        16.2758  -28.2875  -42.0512 H         1 UNK         0.1426 
     74 H74        17.5481  -28.5518  -39.8406 H         1 UNK         0.0716 
     75 H75        19.0319  -29.4709  -39.8142 H         1 UNK         0.0716 
     76 H76        20.9594  -28.9941  -41.5352 H         1 UNK         0.0695 
     77 H77        21.6467  -27.3852  -41.5375 H         1 UNK         0.0695 
     78 H78        19.7303  -28.5322  -43.6370 H         1 UNK         0.0983 
     79 H79        19.1854  -26.4482  -44.0626 H         1 UNK         0.3095 
     80 H80        20.2154  -23.4653  -43.4649 H         1 UNK         0.0454 
     81 H81        20.3378  -22.5169  -45.7992 H         1 UNK         0.0851 
     82 H82        21.8808  -23.1109  -45.2081 H         1 UNK         0.0851 
     83 H83        20.9754  -24.0601  -46.3698 H         1 UNK         0.0851 
     84 H84        18.1205  -24.0691  -43.8160 H         1 UNK         0.2976 
     85 H85        22.8164  -28.9257  -42.5850 H         1 UNK         0.3116 
     86 H86        24.1569  -28.6739  -45.2404 H         1 UNK         0.0646 
     87 H87        23.8052  -31.1054  -44.7729 H         1 UNK         0.0847 
     88 H88        25.5023  -30.6858  -44.5984 H         1 UNK         0.0847 
     89 H89        24.5035  -30.9146  -43.1672 H         1 UNK         0.0847 
     90 H90        23.8773  -26.5759  -43.6593 H         1 UNK         0.3040 
     91 H91        24.7955  -24.9287  -42.5546 H         1 UNK         0.1015 
     92 H92        27.4031  -26.5008  -42.1944 H         1 UNK         0.0786 
     93 H93        27.1550  -24.7901  -41.9007 H         1 UNK         0.0786 
     94 H94        27.0482  -25.4156  -43.5387 H         1 UNK         0.0786 
     95 H95        25.3655  -28.0959  -41.1456 H         1 UNK         0.3172 
     96 H96        23.9383  -27.2952  -38.6553 H         1 UNK         0.0595 
     97 H97        26.1872  -29.3901  -38.9234 H         1 UNK         0.0839 
     98 H98        25.2789  -29.0381  -37.4590 H         1 UNK         0.0839 
     99 H99        26.3636  -27.8302  -38.1235 H         1 UNK         0.0839 
    100 H100       22.8991  -29.4035  -37.7635 H         1 UNK         0.2998 
    101 H101       21.3279  -30.6772  -39.8602 H         1 UNK         0.0822 
    102 H102       20.0837  -31.6349  -37.9546 H         1 UNK         0.0787 
    103 H103       20.3094  -29.9111  -37.7137 H         1 UNK         0.0787 
    104 H104       21.3032  -31.0632  -36.8234 H         1 UNK         0.0787 
    105 H105       23.8184  -31.3710  -40.4732 H         1 UNK         0.3055 
    106 H106       24.6133  -33.9469  -39.3185 H         1 UNK         0.1106 
    107 H107       26.4689  -33.7869  -40.9684 H         1 UNK         0.0828 
    108 H108       25.7228  -32.3820  -41.7145 H         1 UNK         0.0828 
    109 H109       26.3207  -32.2925  -40.0590 H         1 UNK         0.0828 
    110 H110       22.7693  -32.8478  -42.1113 H         1 UNK         0.2931 
    111 H111       22.7688  -35.3887  -43.4950 H         1 UNK         0.0412 
    112 H112       20.8031  -36.7267  -43.8802 H         1 UNK         0.3472 
    113 H113       19.6556  -36.8809  -42.5763 H         1 UNK         0.3472 
    114 H114       22.5195  -33.5383  -44.9270 H         1 UNK         0.0970 
    115 H115       20.9600  -34.2902  -44.9248 H         1 UNK         0.0970 
    116 H116       18.8537  -32.7891  -44.8328 H         1 UNK         0.0612 
    117 H117       18.9641  -33.3476  -43.1760 H         1 UNK         0.0612 
@<TRIPOS>BOND
     1    1    2 1    
     2    1   62 1    
     3    1   63 1    
     4    1   64 1    
     5    2    3 2    
     6    2    4 am   BACKBONE|DICT|INTERRES
     7    4    5 1    
     8    4   65 1    
     9    5    6 1    
    10    5   25 1    
    11    5   66 1    
    12    6    7 1    
    13    6   67 1    
    14    6   68 1    
    15    7    8 1    
    16    8    9 1    
    17    8   69 1    
    18    8   70 1    
    19    9   10 ar   
    20    9   14 ar   
    21   10   11 ar   
    22   10   71 1    
    23   11   12 ar   
    24   11   61 1    
    25   12   13 ar   
    26   12   72 1    
    27   13   14 ar   
    28   13   15 1    
    29   14   73 1    
    30   15   16 1    
    31   15   74 1    
    32   15   75 1    
    33   16   17 1    
    34   17   18 1    
    35   17   76 1    
    36   17   77 1    
    37   18   19 1    
    38   18   27 1    
    39   18   78 1    
    40   19   20 am   BACKBONE|DICT|INTERRES
    41   19   79 1    
    42   20   21 2    
    43   20   22 1    
    44   22   23 1    
    45   22   24 1    
    46   22   80 1    
    47   23   81 1    
    48   23   82 1    
    49   23   83 1    
    50   24   25 am   BACKBONE|DICT|INTERRES
    51   24   84 1    
    52   25   26 2    
    53   27   28 2    
    54   27   29 am   BACKBONE|DICT|INTERRES
    55   29   30 1    
    56   29   85 1    
    57   30   31 1    
    58   30   32 1    
    59   30   86 1    
    60   31   87 1    
    61   31   88 1    
    62   31   89 1    
    63   32   33 2    
    64   32   34 am   BACKBONE|DICT|INTERRES
    65   34   35 1    
    66   34   90 1    
    67   35   36 1    
    68   35   37 1    
    69   35   91 1    
    70   36   92 1    
    71   36   93 1    
    72   36   94 1    
    73   37   38 2    
    74   37   39 am   BACKBONE|DICT|INTERRES
    75   39   40 1    
    76   39   95 1    
    77   40   41 1    
    78   40   42 1    
    79   40   96 1    
    80   41   97 1    
    81   41   98 1    
    82   41   99 1    
    83   42   43 2    
    84   42   44 am   BACKBONE|DICT|INTERRES
    85   44   45 1    
    86   44  100 1    
    87   45   46 1    
    88   45   47 1    
    89   45  101 1    
    90   46  102 1    
    91   46  103 1    
    92   46  104 1    
    93   47   48 2    
    94   47   49 am   BACKBONE|DICT|INTERRES
    95   49   50 1    
    96   49  105 1    
    97   50   51 1    
    98   50   52 1    
    99   50  106 1    
   100   51  107 1    
   101   51  108 1    
   102   51  109 1    
   103   52   53 2    
   104   52   54 am   BACKBONE|DICT|INTERRES
   105   54   55 1    
   106   54  110 1    
   107   55   56 1    
   108   55   59 1    
   109   55  111 1    
   110   56   57 am   BACKBONE|DICT|INTERRES
   111   56   58 2    
   112   57  112 1    
   113   57  113 1    
   114   59   60 1    
   115   59  114 1    
   116   59  115 1    
   117   60   61 1    
   118   61  116 1    
   119   61  117 1    
@<TRIPOS>SUBSTRUCTURE
     1 UNK         1 GROUP             0       ****    0 ROOT    
