@<TRIPOS>MOLECULE
3R8
117   119    1
SMALL
USER_CHARGES


@<TRIPOS>ATOM
      1 CA         15.5963  -25.3193  -39.9624 C.3       0 UNK        -0.2013 
      2 C          15.9747  -25.3130  -41.4357 C.2       0 UNK         0.4866 
      3 O          16.4665  -24.3027  -41.9383 O.2       0 UNK        -0.5176 
      4 N          15.7529  -26.4347  -42.1327 N.am      1 UNK        -0.4884 
      5 CA         16.0670  -26.6151  -43.5574 C.3       1 UNK         0.0853 
      6 C6         15.2091  -27.7394  -44.1925 C.3       10 UNK        -0.0849 
      7 S7         15.3947  -29.3698  -43.3823 S.3       10 UNK        -0.2776 
      8 C8         15.7777  -30.4594  -44.7923 C.3       10 UNK         0.0316 
      9 C9         17.2598  -30.4749  -45.1477 C.ar      10 UNK        -0.0863 
     10 C10        18.1555  -31.1980  -44.3551 C.ar      10 UNK        -0.1009 
     11 C11        19.5054  -31.2925  -44.7074 C.ar      10 UNK        -0.0712 
     12 C12        19.9583  -30.6604  -45.8696 C.ar      10 UNK        -0.0894 
     13 C13        19.0694  -29.9525  -46.6849 C.ar      10 UNK        -0.0745 
     14 C14        17.7251  -29.8472  -46.3084 C.ar      10 UNK        -0.0972 
     15 C15        19.5340  -29.3903  -48.0230 C.3       10 UNK         0.0209 
     16 S16        19.9396  -27.6189  -47.9552 S.3       10 UNK        -0.2568 
     17 C17        21.6272  -27.6249  -47.2615 C.3       10 UNK        -0.0983 
     18 CA         21.7080  -26.7837  -45.9685 C.3       3 UNK         0.0876 
     19 N          20.8958  -27.3535  -44.8943 N.am      3 UNK        -0.4424 
     20 C          20.6681  -26.7755  -43.7098 C.2       2 UNK         0.4918 
     21 O          21.1315  -25.6830  -43.3720 O.2       2 UNK        -0.4875 
     22 CA         19.7521  -27.5534  -42.7505 C.3       2 UNK         0.0481 
     23 CB         20.2621  -27.4399  -41.3022 C.3       2 UNK        -0.1831 
     24 N          18.3428  -27.1465  -42.7815 N.am      2 UNK        -0.4498 
     25 C          17.5690  -26.8362  -43.8364 C.2       1 UNK         0.5027 
     26 O          17.9631  -26.7386  -44.9973 O.2       1 UNK        -0.4969 
     27 C          23.1644  -26.6023  -45.5050 C.2       3 UNK         0.5005 
     28 O          23.7519  -27.5430  -44.9660 O.2       3 UNK        -0.5279 
     29 N          23.6905  -25.3784  -45.6679 N.am      4 UNK        -0.4463 
     30 CA         25.0082  -24.9127  -45.2082 C.3       4 UNK         0.0283 
     31 CB         26.1348  -25.6149  -45.9963 C.3       4 UNK        -0.1875 
     32 C          25.2170  -25.0132  -43.6796 C.2       4 UNK         0.4949 
     33 O          26.3633  -25.0243  -43.2292 O.2       4 UNK        -0.5039 
     34 N          24.1147  -25.0952  -42.9144 N.am      5 UNK        -0.4663 
     35 CA         24.0506  -25.3386  -41.4678 C.3       5 UNK         0.0242 
     36 CB         24.6031  -24.1299  -40.6819 C.3       5 UNK        -0.1982 
     37 C          24.6935  -26.6789  -41.0502 C.2       5 UNK         0.5017 
     38 O          25.2911  -26.7597  -39.9748 O.2       5 UNK        -0.5012 
     39 N          24.5754  -27.7000  -41.9137 N.am      6 UNK        -0.4439 
     40 CA         25.1057  -29.0488  -41.7020 C.3       6 UNK         0.0297 
     41 CB         24.9027  -29.8751  -42.9817 C.3       6 UNK        -0.2006 
     42 C          24.4837  -29.7673  -40.4902 C.2       6 UNK         0.4892 
     43 O          23.3223  -29.5285  -40.1486 O.2       6 UNK        -0.5089 
     44 N          25.2810  -30.6485  -39.8745 N.am      7 UNK        -0.4243 
     45 CA         24.8810  -31.4896  -38.7472 C.3       7 UNK         0.0196 
     46 CB         26.1446  -32.0336  -38.0598 C.3       7 UNK        -0.2007 
     47 C          23.9724  -32.6476  -39.1917 C.2       7 UNK         0.5020 
     48 O          24.0516  -33.0895  -40.3394 O.2       7 UNK        -0.5147 
     49 N          23.1537  -33.1334  -38.2480 N.am      8 UNK        -0.4734 
     50 CA         22.2135  -34.2611  -38.3635 C.3       8 UNK         0.0238 
     51 CB         22.9509  -35.5728  -38.7116 C.3       8 UNK        -0.1912 
     52 C          21.0024  -34.0114  -39.2869 C.2       8 UNK         0.5038 
     53 O          20.2483  -34.9504  -39.5485 O.2       8 UNK        -0.5046 
     54 N          20.8052  -32.7634  -39.7310 N.am      9 UNK        -0.4200 
     55 CA         19.6415  -32.3268  -40.5194 C.3       9 UNK         0.0839 
     56 C          18.3303  -32.1662  -39.6960 C.2       9 UNK         0.5513 
     57 N          18.3664  -32.1817  -38.3686 N.am      9 UNK        -0.7519 
     58 O          17.2570  -32.0327  -40.2772 O.2       9 UNK        -0.4960 
     59 C59        19.9455  -31.0353  -41.3211 C.3       10 UNK        -0.0876 
     60 S60        21.2799  -31.2328  -42.5491 S.3       10 UNK        -0.2414 
     61 C61        20.4552  -32.1529  -43.8852 C.3       10 UNK         0.0169 
     62 H62        14.8588  -24.5426  -39.7616 H         1 UNK         0.0903 
     63 H63        15.1741  -26.2753  -39.6532 H         1 UNK         0.0903 
     64 H64        16.4746  -25.1219  -39.3483 H         1 UNK         0.0903 
     65 H65        15.3426  -27.2402  -41.6788 H         1 UNK         0.3096 
     66 H66        15.8070  -25.6865  -44.0713 H         1 UNK         0.1121 
     67 H67        15.4289  -27.8252  -45.2586 H         1 UNK         0.0849 
     68 H68        14.1552  -27.4623  -44.1391 H         1 UNK         0.0849 
     69 H69        15.4699  -31.4737  -44.5337 H         1 UNK         0.0865 
     70 H70        15.1705  -30.1798  -45.6547 H         1 UNK         0.0865 
     71 H71        17.7910  -31.7124  -43.4761 H         1 UNK         0.1346 
     72 H72        20.9941  -30.7629  -46.1638 H         1 UNK         0.1412 
     73 H73        17.0346  -29.3087  -46.9432 H         1 UNK         0.1426 
     74 H74        18.7432  -29.5305  -48.7615 H         1 UNK         0.0716 
     75 H75        20.3914  -29.9496  -48.4007 H         1 UNK         0.0716 
     76 H76        22.2935  -27.2188  -48.0251 H         1 UNK         0.0695 
     77 H77        21.9616  -28.6475  -47.0786 H         1 UNK         0.0695 
     78 H78        21.2935  -25.7960  -46.1830 H         1 UNK         0.0983 
     79 H79        20.4276  -28.2222  -45.1095 H         1 UNK         0.3095 
     80 H80        19.7790  -28.6052  -43.0377 H         1 UNK         0.0454 
     81 H81        20.2699  -26.4055  -40.9561 H         1 UNK         0.0851 
     82 H82        21.2815  -27.8206  -41.2181 H         1 UNK         0.0851 
     83 H83        19.6436  -28.0104  -40.6106 H         1 UNK         0.0851 
     84 H84        17.8690  -27.1654  -41.8912 H         1 UNK         0.2976 
     85 H85        23.1150  -24.6683  -46.1013 H         1 UNK         0.3116 
     86 H86        25.0537  -23.8489  -45.4458 H         1 UNK         0.0646 
     87 H87        25.9813  -25.5294  -47.0719 H         1 UNK         0.0847 
     88 H88        26.2005  -26.6752  -45.7496 H         1 UNK         0.0847 
     89 H89        27.1058  -25.1707  -45.7744 H         1 UNK         0.0847 
     90 H90        23.2139  -25.0892  -43.3808 H         1 UNK         0.3040 
     91 H91        22.9912  -25.4309  -41.2227 H         1 UNK         0.1015 
     92 H92        25.6778  -24.0108  -40.8228 H         1 UNK         0.0786 
     93 H93        24.4275  -24.2460  -39.6117 H         1 UNK         0.0786 
     94 H94        24.1192  -23.2027  -40.9886 H         1 UNK         0.0786 
     95 H95        24.1049  -27.5383  -42.7970 H         1 UNK         0.3172 
     96 H96        26.1787  -28.9499  -41.5249 H         1 UNK         0.0595 
     97 H97        25.2457  -30.9025  -42.8512 H         1 UNK         0.0839 
     98 H98        25.4583  -29.4516  -43.8187 H         1 UNK         0.0839 
     99 H99        23.8518  -29.9167  -43.2691 H         1 UNK         0.0839 
    100 H100       26.2028  -30.8136  -40.2516 H         1 UNK         0.2998 
    101 H101       24.3341  -30.8682  -38.0342 H         1 UNK         0.0822 
    102 H102       26.7870  -31.2245  -37.7113 H         1 UNK         0.0787 
    103 H103       25.8890  -32.6389  -37.1890 H         1 UNK         0.0787 
    104 H104       26.7304  -32.6626  -38.7316 H         1 UNK         0.0787 
    105 H105       23.1754  -32.6915  -37.3380 H         1 UNK         0.3055 
    106 H106       21.7876  -34.3905  -37.3671 H         1 UNK         0.1106 
    107 H107       23.3343  -35.5662  -39.7322 H         1 UNK         0.0828 
    108 H108       22.2844  -36.4319  -38.6251 H         1 UNK         0.0828 
    109 H109       23.7897  -35.7487  -38.0382 H         1 UNK         0.0828 
    110 H110       21.4830  -32.0531  -39.4978 H         1 UNK         0.2931 
    111 H111       19.4262  -33.1166  -41.2402 H         1 UNK         0.0412 
    112 H112       17.5069  -32.0815  -37.8514 H         1 UNK         0.3472 
    113 H113       19.2398  -32.2887  -37.8788 H         1 UNK         0.3472 
    114 H114       20.2527  -30.2495  -40.6309 H         1 UNK         0.0970 
    115 H115       19.0562  -30.6553  -41.8241 H         1 UNK         0.0970 
    116 H116       21.2265  -32.5671  -44.5360 H         1 UNK         0.0612 
    117 H117       19.9256  -33.0128  -43.4747 H         1 UNK         0.0612 
@<TRIPOS>BOND
     1    1    2 1    
     2    1   62 1    
     3    1   63 1    
     4    1   64 1    
     5    2    3 2    
     6    2    4 am   BACKBONE|DICT|INTERRES
     7    4    5 1    
     8    4   65 1    
     9    5    6 1    
    10    5   25 1    
    11    5   66 1    
    12    6    7 1    
    13    6   67 1    
    14    6   68 1    
    15    7    8 1    
    16    8    9 1    
    17    8   69 1    
    18    8   70 1    
    19    9   10 ar   
    20    9   14 ar   
    21   10   11 ar   
    22   10   71 1    
    23   11   12 ar   
    24   11   61 1    
    25   12   13 ar   
    26   12   72 1    
    27   13   14 ar   
    28   13   15 1    
    29   14   73 1    
    30   15   16 1    
    31   15   74 1    
    32   15   75 1    
    33   16   17 1    
    34   17   18 1    
    35   17   76 1    
    36   17   77 1    
    37   18   19 1    
    38   18   27 1    
    39   18   78 1    
    40   19   20 am   BACKBONE|DICT|INTERRES
    41   19   79 1    
    42   20   21 2    
    43   20   22 1    
    44   22   23 1    
    45   22   24 1    
    46   22   80 1    
    47   23   81 1    
    48   23   82 1    
    49   23   83 1    
    50   24   25 am   BACKBONE|DICT|INTERRES
    51   24   84 1    
    52   25   26 2    
    53   27   28 2    
    54   27   29 am   BACKBONE|DICT|INTERRES
    55   29   30 1    
    56   29   85 1    
    57   30   31 1    
    58   30   32 1    
    59   30   86 1    
    60   31   87 1    
    61   31   88 1    
    62   31   89 1    
    63   32   33 2    
    64   32   34 am   BACKBONE|DICT|INTERRES
    65   34   35 1    
    66   34   90 1    
    67   35   36 1    
    68   35   37 1    
    69   35   91 1    
    70   36   92 1    
    71   36   93 1    
    72   36   94 1    
    73   37   38 2    
    74   37   39 am   BACKBONE|DICT|INTERRES
    75   39   40 1    
    76   39   95 1    
    77   40   41 1    
    78   40   42 1    
    79   40   96 1    
    80   41   97 1    
    81   41   98 1    
    82   41   99 1    
    83   42   43 2    
    84   42   44 am   BACKBONE|DICT|INTERRES
    85   44   45 1    
    86   44  100 1    
    87   45   46 1    
    88   45   47 1    
    89   45  101 1    
    90   46  102 1    
    91   46  103 1    
    92   46  104 1    
    93   47   48 2    
    94   47   49 am   BACKBONE|DICT|INTERRES
    95   49   50 1    
    96   49  105 1    
    97   50   51 1    
    98   50   52 1    
    99   50  106 1    
   100   51  107 1    
   101   51  108 1    
   102   51  109 1    
   103   52   53 2    
   104   52   54 am   BACKBONE|DICT|INTERRES
   105   54   55 1    
   106   54  110 1    
   107   55   56 1    
   108   55   59 1    
   109   55  111 1    
   110   56   57 am   BACKBONE|DICT|INTERRES
   111   56   58 2    
   112   57  112 1    
   113   57  113 1    
   114   59   60 1    
   115   59  114 1    
   116   59  115 1    
   117   60   61 1    
   118   61  116 1    
   119   61  117 1    
@<TRIPOS>SUBSTRUCTURE
     1 UNK         1 GROUP             0       ****    0 ROOT    
