@<TRIPOS>MOLECULE
3R8
117   119    1
SMALL
USER_CHARGES


@<TRIPOS>ATOM
      1 CA         15.0038  -25.5287  -47.2873 C.3       0 UNK        -0.2013 
      2 C          15.9347  -26.2966  -46.3617 C.2       0 UNK         0.4866 
      3 O          17.1423  -26.3399  -46.6032 O.2       0 UNK        -0.5176 
      4 N          15.3897  -26.8970  -45.2952 N.am      1 UNK        -0.4884 
      5 CA         16.1225  -27.6830  -44.2940 C.3       1 UNK         0.0853 
      6 C6         15.2108  -28.7346  -43.6059 C.3       10 UNK        -0.0849 
      7 S7         15.1895  -30.2746  -44.5810 S.3       10 UNK        -0.2776 
      8 C8         16.4433  -31.2707  -43.7034 C.3       10 UNK         0.0316 
      9 C9         17.8022  -30.5806  -43.6182 C.ar      10 UNK        -0.0863 
     10 C10        18.2046  -29.9644  -42.4301 C.ar      10 UNK        -0.1009 
     11 C11        19.4689  -29.3807  -42.3208 C.ar      10 UNK        -0.0712 
     12 C12        20.3266  -29.3912  -43.4247 C.ar      10 UNK        -0.0894 
     13 C13        19.9285  -29.9747  -44.6361 C.ar      10 UNK        -0.0745 
     14 C14        18.6660  -30.5740  -44.7172 C.ar      10 UNK        -0.0972 
     15 C15        20.8511  -30.0578  -45.8534 C.3       10 UNK         0.0209 
     16 S16        22.2241  -28.8546  -45.8950 S.3       10 UNK        -0.2568 
     17 C17        21.4919  -27.3858  -46.7042 C.3       10 UNK        -0.0983 
     18 CA         21.4840  -26.0816  -45.8606 C.3       3 UNK         0.0876 
     19 N          20.4743  -26.1163  -44.7961 N.am      3 UNK        -0.4424 
     20 C          20.0533  -25.0396  -44.1115 C.2       2 UNK         0.4918 
     21 O          20.5216  -23.9099  -44.2582 O.2       2 UNK        -0.4875 
     22 CA         18.8701  -25.2570  -43.1555 C.3       2 UNK         0.0481 
     23 CB         18.2528  -23.9404  -42.6405 C.3       2 UNK        -0.1831 
     24 N          17.8704  -26.0582  -43.8511 N.am      2 UNK        -0.4498 
     25 C          16.8908  -26.7811  -43.3050 C.2       1 UNK         0.5027 
     26 O          16.6054  -26.7623  -42.1063 O.2       1 UNK        -0.4969 
     27 C          22.8839  -25.6735  -45.3474 C.2       3 UNK         0.5005 
     28 O          23.5841  -24.9096  -46.0147 O.2       3 UNK        -0.5279 
     29 N          23.2332  -26.1653  -44.1545 N.am      4 UNK        -0.4463 
     30 CA         24.4398  -25.8982  -43.3841 C.3       4 UNK         0.0283 
     31 CB         25.6969  -26.4072  -44.1151 C.3       4 UNK        -0.1875 
     32 C          24.2594  -26.5874  -42.0267 C.2       4 UNK         0.4949 
     33 O          23.5121  -27.5666  -41.9342 O.2       4 UNK        -0.5039 
     34 N          24.9261  -26.0546  -40.9962 N.am      5 UNK        -0.4663 
     35 CA         24.8354  -26.5259  -39.6129 C.3       5 UNK         0.0242 
     36 CB         25.5986  -25.5579  -38.6930 C.3       5 UNK        -0.1982 
     37 C          25.3600  -27.9630  -39.4575 C.2       5 UNK         0.5017 
     38 O          26.5438  -28.2039  -39.7027 O.2       5 UNK        -0.5012 
     39 N          24.4620  -28.8760  -39.0610 N.am      6 UNK        -0.4439 
     40 CA         24.6876  -30.3089  -38.8303 C.3       6 UNK         0.0297 
     41 CB         25.6429  -30.5282  -37.6374 C.3       6 UNK        -0.2006 
     42 C          25.1162  -31.0986  -40.0856 C.2       6 UNK         0.4892 
     43 O          25.7133  -32.1679  -39.9493 O.2       6 UNK        -0.5089 
     44 N          24.7952  -30.5843  -41.2830 N.am      7 UNK        -0.4243 
     45 CA         25.0659  -31.2514  -42.5621 C.3       7 UNK         0.0196 
     46 CB         24.9548  -30.2281  -43.6981 C.3       7 UNK        -0.2007 
     47 C          24.1460  -32.4584  -42.8158 C.2       7 UNK         0.5020 
     48 O          24.5555  -33.4079  -43.4842 O.2       7 UNK        -0.5147 
     49 N          22.9368  -32.4085  -42.2524 N.am      8 UNK        -0.4734 
     50 CA         21.9760  -33.5015  -42.1859 C.3       8 UNK         0.0238 
     51 CB         21.0871  -33.5183  -43.4475 C.3       8 UNK        -0.1912 
     52 C          21.2185  -33.2913  -40.8735 C.2       8 UNK         0.5038 
     53 O          21.7020  -33.7227  -39.8259 O.2       8 UNK        -0.5046 
     54 N          20.1139  -32.5412  -40.9490 N.am      9 UNK        -0.4200 
     55 CA         19.3801  -31.9632  -39.8149 C.3       9 UNK         0.0839 
     56 C          18.7409  -33.0227  -38.8658 C.2       9 UNK         0.5513 
     57 N          18.3982  -32.6597  -37.6362 N.am      9 UNK        -0.7519 
     58 O          18.4942  -34.1638  -39.2518 O.2       9 UNK        -0.4960 
     59 C59        20.1905  -30.8469  -39.0814 C.3       10 UNK        -0.0876 
     60 S60        21.1729  -29.7306  -40.1549 S.3       10 UNK        -0.2414 
     61 C61        19.9126  -28.7349  -41.0141 C.3       10 UNK         0.0169 
     62 H62        13.9669  -25.5762  -46.9552 H         1 UNK         0.0903 
     63 H63        15.2991  -24.4807  -47.3305 H         1 UNK         0.0903 
     64 H64        15.0562  -25.9393  -48.2953 H         1 UNK         0.0903 
     65 H65        14.3959  -26.8085  -45.1359 H         1 UNK         0.3096 
     66 H66        16.9107  -28.2254  -44.8216 H         1 UNK         0.1121 
     67 H67        15.5384  -28.9828  -42.5956 H         1 UNK         0.0849 
     68 H68        14.1918  -28.3613  -43.4938 H         1 UNK         0.0849 
     69 H69        16.0738  -31.5099  -42.7048 H         1 UNK         0.0865 
     70 H70        16.5550  -32.2269  -44.2168 H         1 UNK         0.0865 
     71 H71        17.5333  -29.9453  -41.5829 H         1 UNK         0.1346 
     72 H72        21.3122  -28.9599  -43.3186 H         1 UNK         0.1412 
     73 H73        18.3563  -31.0519  -45.6370 H         1 UNK         0.1426 
     74 H74        20.2717  -29.9699  -46.7737 H         1 UNK         0.0716 
     75 H75        21.2889  -31.0567  -45.8653 H         1 UNK         0.0716 
     76 H76        22.0551  -27.2142  -47.6231 H         1 UNK         0.0695 
     77 H77        20.4763  -27.6165  -47.0300 H         1 UNK         0.0695 
     78 H78        21.1742  -25.2815  -46.5372 H         1 UNK         0.0983 
     79 H79        20.0479  -27.0135  -44.6148 H         1 UNK         0.3095 
     80 H80        19.2452  -25.8255  -42.3029 H         1 UNK         0.0454 
     81 H81        18.9963  -23.3375  -42.1178 H         1 UNK         0.0851 
     82 H82        17.8567  -23.3371  -43.4580 H         1 UNK         0.0851 
     83 H83        17.4410  -24.1255  -41.9374 H         1 UNK         0.0851 
     84 H84        17.9556  -26.0931  -44.8654 H         1 UNK         0.2976 
     85 H85        22.6012  -26.8039  -43.6866 H         1 UNK         0.3116 
     86 H86        24.5186  -24.8215  -43.2214 H         1 UNK         0.0646 
     87 H87        26.5653  -26.4244  -43.4552 H         1 UNK         0.0847 
     88 H88        25.9494  -25.7649  -44.9585 H         1 UNK         0.0847 
     89 H89        25.5548  -27.4140  -44.5041 H         1 UNK         0.0847 
     90 H90        25.5414  -25.2720  -41.1661 H         1 UNK         0.3040 
     91 H91        23.7817  -26.5008  -39.3249 H         1 UNK         0.1015 
     92 H92        26.6560  -25.4995  -38.9548 H         1 UNK         0.0786 
     93 H93        25.5386  -25.8805  -37.6525 H         1 UNK         0.0786 
     94 H94        25.1837  -24.5509  -38.7428 H         1 UNK         0.0786 
     95 H95        23.5039  -28.5732  -38.9440 H         1 UNK         0.3172 
     96 H96        23.7173  -30.7190  -38.5463 H         1 UNK         0.0595 
     97 H97        25.6896  -31.5821  -37.3603 H         1 UNK         0.0839 
     98 H98        26.6597  -30.2094  -37.8690 H         1 UNK         0.0839 
     99 H99        25.3112  -29.9796  -36.7559 H         1 UNK         0.0839 
    100 H100       24.3182  -29.6911  -41.3193 H         1 UNK         0.2998 
    101 H101       26.0920  -31.6253  -42.5446 H         1 UNK         0.0822 
    102 H102       25.0757  -30.7006  -44.6739 H         1 UNK         0.0787 
    103 H103       23.9880  -29.7245  -43.6923 H         1 UNK         0.0787 
    104 H104       25.7324  -29.4720  -43.6044 H         1 UNK         0.0787 
    105 H105       22.7053  -31.5936  -41.6991 H         1 UNK         0.3055 
    106 H106       22.5031  -34.4555  -42.1097 H         1 UNK         0.1106 
    107 H107       21.6719  -33.7756  -44.3307 H         1 UNK         0.0828 
    108 H108       20.2936  -34.2615  -43.3595 H         1 UNK         0.0828 
    109 H109       20.6211  -32.5524  -43.6382 H         1 UNK         0.0828 
    110 H110       19.8058  -32.2351  -41.8598 H         1 UNK         0.2931 
    111 H111       18.5146  -31.4830  -40.2626 H         1 UNK         0.0412 
    112 H112       18.5595  -31.7245  -37.2978 H         1 UNK         0.3472 
    113 H113       17.9645  -33.3403  -37.0315 H         1 UNK         0.3472 
    114 H114       20.8931  -31.3056  -38.3833 H         1 UNK         0.0970 
    115 H115       19.5252  -30.2304  -38.4754 H         1 UNK         0.0970 
    116 H116       20.3427  -27.7569  -41.2333 H         1 UNK         0.0612 
    117 H117       19.0636  -28.5547  -40.3531 H         1 UNK         0.0612 
@<TRIPOS>BOND
     1    1    2 1    
     2    1   62 1    
     3    1   63 1    
     4    1   64 1    
     5    2    3 2    
     6    2    4 am   BACKBONE|DICT|INTERRES
     7    4    5 1    
     8    4   65 1    
     9    5    6 1    
    10    5   25 1    
    11    5   66 1    
    12    6    7 1    
    13    6   67 1    
    14    6   68 1    
    15    7    8 1    
    16    8    9 1    
    17    8   69 1    
    18    8   70 1    
    19    9   10 ar   
    20    9   14 ar   
    21   10   11 ar   
    22   10   71 1    
    23   11   12 ar   
    24   11   61 1    
    25   12   13 ar   
    26   12   72 1    
    27   13   14 ar   
    28   13   15 1    
    29   14   73 1    
    30   15   16 1    
    31   15   74 1    
    32   15   75 1    
    33   16   17 1    
    34   17   18 1    
    35   17   76 1    
    36   17   77 1    
    37   18   19 1    
    38   18   27 1    
    39   18   78 1    
    40   19   20 am   BACKBONE|DICT|INTERRES
    41   19   79 1    
    42   20   21 2    
    43   20   22 1    
    44   22   23 1    
    45   22   24 1    
    46   22   80 1    
    47   23   81 1    
    48   23   82 1    
    49   23   83 1    
    50   24   25 am   BACKBONE|DICT|INTERRES
    51   24   84 1    
    52   25   26 2    
    53   27   28 2    
    54   27   29 am   BACKBONE|DICT|INTERRES
    55   29   30 1    
    56   29   85 1    
    57   30   31 1    
    58   30   32 1    
    59   30   86 1    
    60   31   87 1    
    61   31   88 1    
    62   31   89 1    
    63   32   33 2    
    64   32   34 am   BACKBONE|DICT|INTERRES
    65   34   35 1    
    66   34   90 1    
    67   35   36 1    
    68   35   37 1    
    69   35   91 1    
    70   36   92 1    
    71   36   93 1    
    72   36   94 1    
    73   37   38 2    
    74   37   39 am   BACKBONE|DICT|INTERRES
    75   39   40 1    
    76   39   95 1    
    77   40   41 1    
    78   40   42 1    
    79   40   96 1    
    80   41   97 1    
    81   41   98 1    
    82   41   99 1    
    83   42   43 2    
    84   42   44 am   BACKBONE|DICT|INTERRES
    85   44   45 1    
    86   44  100 1    
    87   45   46 1    
    88   45   47 1    
    89   45  101 1    
    90   46  102 1    
    91   46  103 1    
    92   46  104 1    
    93   47   48 2    
    94   47   49 am   BACKBONE|DICT|INTERRES
    95   49   50 1    
    96   49  105 1    
    97   50   51 1    
    98   50   52 1    
    99   50  106 1    
   100   51  107 1    
   101   51  108 1    
   102   51  109 1    
   103   52   53 2    
   104   52   54 am   BACKBONE|DICT|INTERRES
   105   54   55 1    
   106   54  110 1    
   107   55   56 1    
   108   55   59 1    
   109   55  111 1    
   110   56   57 am   BACKBONE|DICT|INTERRES
   111   56   58 2    
   112   57  112 1    
   113   57  113 1    
   114   59   60 1    
   115   59  114 1    
   116   59  115 1    
   117   60   61 1    
   118   61  116 1    
   119   61  117 1    
@<TRIPOS>SUBSTRUCTURE
     1 UNK         1 GROUP             0       ****    0 ROOT    
