@<TRIPOS>MOLECULE
3R8
117   119    1
SMALL
USER_CHARGES


@<TRIPOS>ATOM
      1 CA         15.4302  -22.4237  -45.9128 C.3       0 UNK        -0.2013 
      2 C          16.8361  -22.8851  -46.2674 C.2       0 UNK         0.4866 
      3 O          17.7793  -22.0977  -46.1804 O.2       0 UNK        -0.5176 
      4 N          16.9816  -24.1514  -46.6755 N.am      1 UNK        -0.4884 
      5 CA         18.2646  -24.7928  -46.9816 C.3       1 UNK         0.0853 
      6 C6         18.0801  -25.9571  -47.9931 C.3       10 UNK        -0.0849 
      7 S7         17.0321  -27.3281  -47.3882 S.3       10 UNK        -0.2776 
      8 C8         18.2907  -28.6215  -47.0940 C.3       10 UNK         0.0316 
      9 C9         18.0059  -29.5563  -45.9193 C.ar      10 UNK        -0.0863 
     10 C10        18.6873  -30.7764  -45.8594 C.ar      10 UNK        -0.1009 
     11 C11        18.5384  -31.6286  -44.7617 C.ar      10 UNK        -0.0712 
     12 C12        17.6713  -31.2700  -43.7268 C.ar      10 UNK        -0.0894 
     13 C13        16.9988  -30.0464  -43.7604 C.ar      10 UNK        -0.0745 
     14 C14        17.1660  -29.1968  -44.8571 C.ar      10 UNK        -0.0972 
     15 C15        16.1211  -29.6258  -42.5924 C.3       10 UNK         0.0209 
     16 S16        17.1134  -29.1932  -41.1269 S.3       10 UNK        -0.2568 
     17 C17        18.0623  -27.7413  -41.7052 C.3       10 UNK        -0.0983 
     18 CA         19.5768  -28.0342  -41.8948 C.3       3 UNK         0.0876 
     19 N          20.1780  -27.0471  -42.7910 N.am      3 UNK        -0.4424 
     20 C          20.6431  -27.2863  -44.0216 C.2       2 UNK         0.4918 
     21 O          20.6510  -28.3901  -44.5629 O.2       2 UNK        -0.4875 
     22 CA         21.1929  -26.0716  -44.7951 C.3       2 UNK         0.0481 
     23 CB         22.5520  -26.4031  -45.4376 C.3       2 UNK        -0.1831 
     24 N          20.2850  -25.6083  -45.8504 N.am      2 UNK        -0.4498 
     25 C          19.0130  -25.2121  -45.6918 C.2       1 UNK         0.5027 
     26 O          18.4423  -25.1639  -44.5983 O.2       1 UNK        -0.4969 
     27 C          20.3294  -28.0191  -40.5476 C.2       3 UNK         0.5005 
     28 O          21.0566  -27.0642  -40.2503 O.2       3 UNK        -0.5279 
     29 N          20.0964  -29.0621  -39.7368 N.am      4 UNK        -0.4463 
     30 CA         20.6366  -29.2855  -38.3931 C.3       4 UNK         0.0283 
     31 CB         20.0717  -28.2483  -37.3949 C.3       4 UNK        -0.1875 
     32 C          22.1727  -29.3800  -38.4112 C.2       4 UNK         0.4949 
     33 O          22.7049  -30.3576  -38.9397 O.2       4 UNK        -0.5039 
     34 N          22.8574  -28.3838  -37.8347 N.am      5 UNK        -0.4663 
     35 CA         24.3183  -28.2897  -37.8136 C.3       5 UNK         0.0242 
     36 CB         24.7434  -27.1934  -36.8237 C.3       5 UNK        -0.1982 
     37 C          24.9245  -28.0288  -39.2028 C.2       5 UNK         0.5017 
     38 O          26.0442  -28.4728  -39.4601 O.2       5 UNK        -0.5012 
     39 N          24.1805  -27.3356  -40.0763 N.am      6 UNK        -0.4439 
     40 CA         24.5540  -27.1216  -41.4717 C.3       6 UNK         0.0297 
     41 CB         23.8378  -25.8730  -42.0069 C.3       6 UNK        -0.2006 
     42 C          24.2017  -28.3795  -42.2793 C.2       6 UNK         0.4892 
     43 O          23.1223  -28.9413  -42.0905 O.2       6 UNK        -0.5089 
     44 N          25.1452  -28.8264  -43.1199 N.am      7 UNK        -0.4243 
     45 CA         25.1204  -30.0699  -43.9106 C.3       7 UNK         0.0196 
     46 CB         23.9641  -30.0552  -44.9340 C.3       7 UNK        -0.2007 
     47 C          25.1288  -31.3733  -43.0776 C.2       7 UNK         0.5020 
     48 O          25.0922  -32.4541  -43.6662 O.2       7 UNK        -0.5147 
     49 N          25.2032  -31.2594  -41.7415 N.am      8 UNK        -0.4734 
     50 CA         25.1903  -32.3324  -40.7386 C.3       8 UNK         0.0238 
     51 CB         26.4882  -33.1646  -40.8163 C.3       8 UNK        -0.1912 
     52 C          23.9165  -33.2036  -40.7717 C.2       8 UNK         0.5038 
     53 O          23.9825  -34.3918  -40.4485 O.2       8 UNK        -0.5046 
     54 N          22.7823  -32.6030  -41.1548 N.am      9 UNK        -0.4200 
     55 CA         21.4645  -33.2563  -41.1924 C.3       9 UNK         0.0839 
     56 C          20.8351  -33.5125  -39.7929 C.2       9 UNK         0.5513 
     57 N          21.2775  -32.8527  -38.7305 N.am      9 UNK        -0.7519 
     58 O          19.9323  -34.3361  -39.6709 O.2       9 UNK        -0.4960 
     59 C59        20.4794  -32.4985  -42.1168 C.3       10 UNK        -0.0876 
     60 S60        20.9602  -32.6169  -43.8740 S.3       10 UNK        -0.2414 
     61 C61        19.3512  -32.9117  -44.6791 C.3       10 UNK         0.0169 
     62 H62        14.6940  -23.2153  -46.0518 H         1 UNK         0.0903 
     63 H63        15.3923  -22.1048  -44.8715 H         1 UNK         0.0903 
     64 H64        15.1427  -21.5796  -46.5390 H         1 UNK         0.0903 
     65 H65        16.1813  -24.7682  -46.6934 H         1 UNK         0.3096 
     66 H66        18.8958  -24.0451  -47.4683 H         1 UNK         0.1121 
     67 H67        19.0470  -26.3404  -48.3226 H         1 UNK         0.0849 
     68 H68        17.6140  -25.5686  -48.9001 H         1 UNK         0.0849 
     69 H69        18.4022  -29.2018  -48.0112 H         1 UNK         0.0865 
     70 H70        19.2590  -28.1581  -46.9046 H         1 UNK         0.0865 
     71 H71        19.3733  -31.0460  -46.6508 H         1 UNK         0.1346 
     72 H72        17.5477  -31.9207  -42.8727 H         1 UNK         0.1412 
     73 H73        16.6638  -28.2401  -44.8588 H         1 UNK         0.1426 
     74 H74        15.4465  -30.4434  -42.3348 H         1 UNK         0.0716 
     75 H75        15.4875  -28.7793  -42.8624 H         1 UNK         0.0716 
     76 H76        17.9041  -26.9167  -41.0072 H         1 UNK         0.0695 
     77 H77        17.6285  -27.4028  -42.6473 H         1 UNK         0.0695 
     78 H78        19.6989  -29.0292  -42.3298 H         1 UNK         0.0983 
     79 H79        20.2623  -26.1193  -42.4014 H         1 UNK         0.3095 
     80 H80        21.3409  -25.2481  -44.0936 H         1 UNK         0.0454 
     81 H81        22.4463  -27.1127  -46.2592 H         1 UNK         0.0851 
     82 H82        23.2300  -26.8584  -44.7171 H         1 UNK         0.0851 
     83 H83        23.0399  -25.5087  -45.8249 H         1 UNK         0.0851 
     84 H84        20.6672  -25.6179  -46.7846 H         1 UNK         0.2976 
     85 H85        19.4580  -29.7727  -40.0668 H         1 UNK         0.3116 
     86 H86        20.2757  -30.2648  -38.0766 H         1 UNK         0.0646 
     87 H87        20.3376  -27.2240  -37.6578 H         1 UNK         0.0847 
     88 H88        20.4334  -28.4375  -36.3833 H         1 UNK         0.0847 
     89 H89        18.9836  -28.3008  -37.3566 H         1 UNK         0.0847 
     90 H90        22.3408  -27.6140  -37.4343 H         1 UNK         0.3040 
     91 H91        24.7141  -29.2447  -37.4601 H         1 UNK         0.1015 
     92 H92        24.3629  -26.2140  -37.1166 H         1 UNK         0.0786 
     93 H93        25.8305  -27.1178  -36.7696 H         1 UNK         0.0786 
     94 H94        24.3850  -27.4069  -35.8165 H         1 UNK         0.0786 
     95 H95        23.2201  -27.1186  -39.8322 H         1 UNK         0.3172 
     96 H96        25.6300  -26.9412  -41.5267 H         1 UNK         0.0595 
     97 H97        24.1936  -25.6162  -43.0044 H         1 UNK         0.0839 
     98 H98        24.0230  -25.0074  -41.3708 H         1 UNK         0.0839 
     99 H99        22.7599  -26.0184  -42.0631 H         1 UNK         0.0839 
    100 H100       26.0076  -28.3015  -43.1807 H         1 UNK         0.2998 
    101 H101       26.0537  -30.0794  -44.4756 H         1 UNK         0.0822 
    102 H102       24.0171  -30.9180  -45.5990 H         1 UNK         0.0787 
    103 H103       22.9876  -30.0868  -44.4489 H         1 UNK         0.0787 
    104 H104       23.9984  -29.1646  -45.5603 H         1 UNK         0.0787 
    105 H105       25.2114  -30.3217  -41.3637 H         1 UNK         0.3055 
    106 H106       25.1761  -31.8348  -39.7671 H         1 UNK         0.1106 
    107 H107       26.5523  -33.8703  -39.9872 H         1 UNK         0.0828 
    108 H108       26.5430  -33.7425  -41.7394 H         1 UNK         0.0828 
    109 H109       27.3715  -32.5282  -40.7651 H         1 UNK         0.0828 
    110 H110       22.8091  -31.6181  -41.3808 H         1 UNK         0.2931 
    111 H111       21.6120  -34.2480  -41.6254 H         1 UNK         0.0412 
    112 H112       20.8738  -33.0434  -37.8277 H         1 UNK         0.3472 
    113 H113       21.9758  -32.1227  -38.8346 H         1 UNK         0.3472 
    114 H114       20.4141  -31.4459  -41.8375 H         1 UNK         0.0970 
    115 H115       19.4742  -32.9073  -42.0053 H         1 UNK         0.0970 
    116 H116       19.5293  -33.3007  -45.6828 H         1 UNK         0.0612 
    117 H117       18.7992  -33.6877  -44.1466 H         1 UNK         0.0612 
@<TRIPOS>BOND
     1    1    2 1    
     2    1   62 1    
     3    1   63 1    
     4    1   64 1    
     5    2    3 2    
     6    2    4 am   BACKBONE|DICT|INTERRES
     7    4    5 1    
     8    4   65 1    
     9    5    6 1    
    10    5   25 1    
    11    5   66 1    
    12    6    7 1    
    13    6   67 1    
    14    6   68 1    
    15    7    8 1    
    16    8    9 1    
    17    8   69 1    
    18    8   70 1    
    19    9   10 ar   
    20    9   14 ar   
    21   10   11 ar   
    22   10   71 1    
    23   11   12 ar   
    24   11   61 1    
    25   12   13 ar   
    26   12   72 1    
    27   13   14 ar   
    28   13   15 1    
    29   14   73 1    
    30   15   16 1    
    31   15   74 1    
    32   15   75 1    
    33   16   17 1    
    34   17   18 1    
    35   17   76 1    
    36   17   77 1    
    37   18   19 1    
    38   18   27 1    
    39   18   78 1    
    40   19   20 am   BACKBONE|DICT|INTERRES
    41   19   79 1    
    42   20   21 2    
    43   20   22 1    
    44   22   23 1    
    45   22   24 1    
    46   22   80 1    
    47   23   81 1    
    48   23   82 1    
    49   23   83 1    
    50   24   25 am   BACKBONE|DICT|INTERRES
    51   24   84 1    
    52   25   26 2    
    53   27   28 2    
    54   27   29 am   BACKBONE|DICT|INTERRES
    55   29   30 1    
    56   29   85 1    
    57   30   31 1    
    58   30   32 1    
    59   30   86 1    
    60   31   87 1    
    61   31   88 1    
    62   31   89 1    
    63   32   33 2    
    64   32   34 am   BACKBONE|DICT|INTERRES
    65   34   35 1    
    66   34   90 1    
    67   35   36 1    
    68   35   37 1    
    69   35   91 1    
    70   36   92 1    
    71   36   93 1    
    72   36   94 1    
    73   37   38 2    
    74   37   39 am   BACKBONE|DICT|INTERRES
    75   39   40 1    
    76   39   95 1    
    77   40   41 1    
    78   40   42 1    
    79   40   96 1    
    80   41   97 1    
    81   41   98 1    
    82   41   99 1    
    83   42   43 2    
    84   42   44 am   BACKBONE|DICT|INTERRES
    85   44   45 1    
    86   44  100 1    
    87   45   46 1    
    88   45   47 1    
    89   45  101 1    
    90   46  102 1    
    91   46  103 1    
    92   46  104 1    
    93   47   48 2    
    94   47   49 am   BACKBONE|DICT|INTERRES
    95   49   50 1    
    96   49  105 1    
    97   50   51 1    
    98   50   52 1    
    99   50  106 1    
   100   51  107 1    
   101   51  108 1    
   102   51  109 1    
   103   52   53 2    
   104   52   54 am   BACKBONE|DICT|INTERRES
   105   54   55 1    
   106   54  110 1    
   107   55   56 1    
   108   55   59 1    
   109   55  111 1    
   110   56   57 am   BACKBONE|DICT|INTERRES
   111   56   58 2    
   112   57  112 1    
   113   57  113 1    
   114   59   60 1    
   115   59  114 1    
   116   59  115 1    
   117   60   61 1    
   118   61  116 1    
   119   61  117 1    
@<TRIPOS>SUBSTRUCTURE
     1 UNK         1 GROUP             0       ****    0 ROOT    
