@<TRIPOS>MOLECULE
3R8
117   119    1
SMALL
USER_CHARGES


@<TRIPOS>ATOM
      1 CA         13.1417  -22.1704  -46.9160 C.3       0 UNK        -0.2013 
      2 C          14.2050  -23.2126  -47.2294 C.2       0 UNK         0.4866 
      3 O          14.6844  -23.2768  -48.3621 O.2       0 UNK        -0.5176 
      4 N          14.5722  -24.0348  -46.2382 N.am      1 UNK        -0.4884 
      5 CA         15.6289  -25.0461  -46.3435 C.3       1 UNK         0.0853 
      6 C6         15.5140  -26.0914  -45.2040 C.3       10 UNK        -0.0849 
      7 S7         16.2481  -27.6998  -45.6540 S.3       10 UNK        -0.2776 
      8 C8         15.7596  -28.7228  -44.2260 C.3       10 UNK         0.0316 
      9 C9         16.9063  -28.8817  -43.2387 C.ar      10 UNK        -0.0863 
     10 C10        17.6693  -30.0537  -43.2345 C.ar      10 UNK        -0.1009 
     11 C11        18.7376  -30.2072  -42.3457 C.ar      10 UNK        -0.0712 
     12 C12        19.0413  -29.1718  -41.4560 C.ar      10 UNK        -0.0894 
     13 C13        18.2990  -27.9863  -41.4655 C.ar      10 UNK        -0.0745 
     14 C14        17.2169  -27.8560  -42.3415 C.ar      10 UNK        -0.0972 
     15 C15        18.7073  -26.8225  -40.5752 C.3       10 UNK         0.0209 
     16 S16        20.3372  -26.1580  -41.0534 S.3       10 UNK        -0.2568 
     17 C17        20.0342  -25.4759  -42.7237 C.3       10 UNK        -0.0983 
     18 CA         20.1695  -26.4911  -43.8978 C.3       3 UNK         0.0876 
     19 N          19.6992  -25.9530  -45.1757 N.am      3 UNK        -0.4424 
     20 C          20.1074  -24.8510  -45.8216 C.2       2 UNK         0.4918 
     21 O          20.9850  -24.0835  -45.4258 O.2       2 UNK        -0.4875 
     22 CA         19.3692  -24.5319  -47.1361 C.3       2 UNK         0.0481 
     23 CB         20.0807  -25.1930  -48.3274 C.3       2 UNK        -0.1831 
     24 N          17.9618  -24.9487  -47.1120 N.am      2 UNK        -0.4498 
     25 C          17.0198  -24.3781  -46.3467 C.2       1 UNK         0.5027 
     26 O          17.2225  -23.3930  -45.6311 O.2       1 UNK        -0.4969 
     27 C          21.5562  -27.1645  -43.9999 C.2       3 UNK         0.5005 
     28 O          22.4298  -26.7224  -44.7493 O.2       3 UNK        -0.5279 
     29 N          21.7187  -28.2466  -43.2298 N.am      4 UNK        -0.4463 
     30 CA         22.9321  -29.0521  -43.1213 C.3       4 UNK         0.0283 
     31 CB         22.9351  -30.1520  -44.2008 C.3       4 UNK        -0.1875 
     32 C          23.0678  -29.5971  -41.6912 C.2       4 UNK         0.4949 
     33 O          23.3727  -30.7746  -41.5009 O.2       4 UNK        -0.5039 
     34 N          22.8394  -28.7311  -40.6932 N.am      5 UNK        -0.4663 
     35 CA         22.9664  -29.0472  -39.2619 C.3       5 UNK         0.0242 
     36 CB         22.3649  -27.9018  -38.4329 C.3       5 UNK        -0.1982 
     37 C          24.4074  -29.3505  -38.8082 C.2       5 UNK         0.5017 
     38 O          24.5940  -29.9848  -37.7706 O.2       5 UNK        -0.5012 
     39 N          25.3946  -28.9094  -39.5976 N.am      6 UNK        -0.4439 
     40 CA         26.8145  -29.2172  -39.4219 C.3       6 UNK         0.0297 
     41 CB         27.6411  -28.0421  -39.9733 C.3       6 UNK        -0.2006 
     42 C          27.2360  -30.5391  -40.0973 C.2       6 UNK         0.4892 
     43 O          28.4018  -30.9168  -39.9693 O.2       6 UNK        -0.5089 
     44 N          26.3214  -31.2010  -40.8209 N.am      7 UNK        -0.4243 
     45 CA         26.5877  -32.4034  -41.6048 C.3       7 UNK         0.0196 
     46 CB         26.8615  -32.0099  -43.0720 C.3       7 UNK        -0.2007 
     47 C          25.4327  -33.3964  -41.4198 C.2       7 UNK         0.5020 
     48 O          25.3696  -34.0478  -40.3772 O.2       7 UNK        -0.5147 
     49 N          24.5509  -33.5047  -42.4238 N.am      8 UNK        -0.4734 
     50 CA         23.4574  -34.4803  -42.5249 C.3       8 UNK         0.0238 
     51 CB         22.6925  -34.2433  -43.8375 C.3       8 UNK        -0.1912 
     52 C          22.4749  -34.5081  -41.3401 C.2       8 UNK         0.5038 
     53 O          21.9769  -35.5861  -41.0115 O.2       8 UNK        -0.5046 
     54 N          22.2266  -33.3459  -40.7264 N.am      9 UNK        -0.4200 
     55 CA         21.3949  -33.1922  -39.5209 C.3       9 UNK         0.0839 
     56 C          22.2386  -32.8805  -38.2511 C.2       9 UNK         0.5513 
     57 N          23.5556  -33.0450  -38.2658 N.am      9 UNK        -0.7519 
     58 O          21.6889  -32.4905  -37.2244 O.2       9 UNK        -0.4960 
     59 C59        20.2504  -32.1644  -39.7334 C.3       10 UNK        -0.0876 
     60 S60        19.1102  -32.6471  -41.0753 S.3       10 UNK        -0.2414 
     61 C61        19.5782  -31.4767  -42.3844 C.3       10 UNK         0.0169 
     62 H62        12.2801  -22.3050  -47.5693 H         1 UNK         0.0903 
     63 H63        12.7977  -22.2353  -45.8839 H         1 UNK         0.0903 
     64 H64        13.5393  -21.1689  -47.0782 H         1 UNK         0.0903 
     65 H65        14.1720  -23.9104  -45.3190 H         1 UNK         0.3096 
     66 H66        15.4878  -25.5551  -47.3004 H         1 UNK         0.1121 
     67 H67        15.9557  -25.7252  -44.2752 H         1 UNK         0.0849 
     68 H68        14.4614  -26.2766  -44.9822 H         1 UNK         0.0849 
     69 H69        14.8902  -28.2965  -43.7233 H         1 UNK         0.0865 
     70 H70        15.4413  -29.7001  -44.5924 H         1 UNK         0.0865 
     71 H71        17.4361  -30.8469  -43.9319 H         1 UNK         0.1346 
     72 H72        19.8725  -29.2669  -40.7724 H         1 UNK         0.1412 
     73 H73        16.6398  -26.9419  -42.3515 H         1 UNK         0.1426 
     74 H74        18.7525  -27.1624  -39.5396 H         1 UNK         0.0716 
     75 H75        17.9673  -26.0212  -40.6056 H         1 UNK         0.0716 
     76 H76        19.0377  -25.0313  -42.7339 H         1 UNK         0.0695 
     77 H77        20.7297  -24.6472  -42.8625 H         1 UNK         0.0695 
     78 H78        19.4681  -27.3019  -43.7197 H         1 UNK         0.0983 
     79 H79        18.9760  -26.4993  -45.6211 H         1 UNK         0.3095 
     80 H80        19.3998  -23.4499  -47.2818 H         1 UNK         0.0454 
     81 H81        20.0714  -26.2812  -48.2539 H         1 UNK         0.0851 
     82 H82        19.6150  -24.9150  -49.2730 H         1 UNK         0.0851 
     83 H83        21.1246  -24.8802  -48.3785 H         1 UNK         0.0851 
     84 H84        17.7147  -25.7529  -47.6719 H         1 UNK         0.2976 
     85 H85        20.9520  -28.5261  -42.6320 H         1 UNK         0.3116 
     86 H86        23.8036  -28.4144  -43.2835 H         1 UNK         0.0646 
     87 H87        23.8251  -30.7761  -44.1287 H         1 UNK         0.0847 
     88 H88        22.9286  -29.7203  -45.2016 H         1 UNK         0.0847 
     89 H89        22.0678  -30.8054  -44.1173 H         1 UNK         0.0847 
     90 H90        22.5877  -27.7792  -40.9250 H         1 UNK         0.3040 
     91 H91        22.3876  -29.9484  -39.0590 H         1 UNK         0.1015 
     92 H92        21.3022  -27.7787  -38.6411 H         1 UNK         0.0786 
     93 H93        22.8610  -26.9517  -38.6345 H         1 UNK         0.0786 
     94 H94        22.4593  -28.0996  -37.3641 H         1 UNK         0.0786 
     95 H95        25.1422  -28.3767  -40.4171 H         1 UNK         0.3172 
     96 H96        27.0335  -29.3130  -38.3563 H         1 UNK         0.0595 
     97 H97        27.3822  -27.1065  -39.4769 H         1 UNK         0.0839 
     98 H98        27.4901  -27.9081  -41.0452 H         1 UNK         0.0839 
     99 H99        28.7081  -28.2041  -39.8136 H         1 UNK         0.0839 
    100 H100       25.3620  -30.8734  -40.8349 H         1 UNK         0.2998 
    101 H101       27.4765  -32.9104  -41.2228 H         1 UNK         0.0822 
    102 H102       27.7783  -31.4252  -43.1498 H         1 UNK         0.0787 
    103 H103       26.9930  -32.8910  -43.7019 H         1 UNK         0.0787 
    104 H104       26.0570  -31.4083  -43.4947 H         1 UNK         0.0787 
    105 H105       24.6789  -32.8983  -43.2199 H         1 UNK         0.3055 
    106 H106       23.9192  -35.4687  -42.5731 H         1 UNK         0.1106 
    107 H107       22.2273  -33.2575  -43.8591 H         1 UNK         0.0828 
    108 H108       23.3486  -34.3272  -44.7040 H         1 UNK         0.0828 
    109 H109       21.8973  -34.9794  -43.9642 H         1 UNK         0.0828 
    110 H110       22.7053  -32.5090  -41.0488 H         1 UNK         0.2931 
    111 H111       20.9136  -34.1443  -39.2917 H         1 UNK         0.0412 
    112 H112       24.0838  -32.8109  -37.4404 H         1 UNK         0.3472 
    113 H113       24.0364  -33.4053  -39.0835 H         1 UNK         0.3472 
    114 H114       20.6638  -31.1774  -39.9283 H         1 UNK         0.0970 
    115 H115       19.6505  -32.0649  -38.8270 H         1 UNK         0.0970 
    116 H116       20.6369  -31.2349  -42.3021 H         1 UNK         0.0612 
    117 H117       19.4609  -31.9750  -43.3479 H         1 UNK         0.0612 
@<TRIPOS>BOND
     1    1    2 1    
     2    1   62 1    
     3    1   63 1    
     4    1   64 1    
     5    2    3 2    
     6    2    4 am   BACKBONE|DICT|INTERRES
     7    4    5 1    
     8    4   65 1    
     9    5    6 1    
    10    5   25 1    
    11    5   66 1    
    12    6    7 1    
    13    6   67 1    
    14    6   68 1    
    15    7    8 1    
    16    8    9 1    
    17    8   69 1    
    18    8   70 1    
    19    9   10 ar   
    20    9   14 ar   
    21   10   11 ar   
    22   10   71 1    
    23   11   12 ar   
    24   11   61 1    
    25   12   13 ar   
    26   12   72 1    
    27   13   14 ar   
    28   13   15 1    
    29   14   73 1    
    30   15   16 1    
    31   15   74 1    
    32   15   75 1    
    33   16   17 1    
    34   17   18 1    
    35   17   76 1    
    36   17   77 1    
    37   18   19 1    
    38   18   27 1    
    39   18   78 1    
    40   19   20 am   BACKBONE|DICT|INTERRES
    41   19   79 1    
    42   20   21 2    
    43   20   22 1    
    44   22   23 1    
    45   22   24 1    
    46   22   80 1    
    47   23   81 1    
    48   23   82 1    
    49   23   83 1    
    50   24   25 am   BACKBONE|DICT|INTERRES
    51   24   84 1    
    52   25   26 2    
    53   27   28 2    
    54   27   29 am   BACKBONE|DICT|INTERRES
    55   29   30 1    
    56   29   85 1    
    57   30   31 1    
    58   30   32 1    
    59   30   86 1    
    60   31   87 1    
    61   31   88 1    
    62   31   89 1    
    63   32   33 2    
    64   32   34 am   BACKBONE|DICT|INTERRES
    65   34   35 1    
    66   34   90 1    
    67   35   36 1    
    68   35   37 1    
    69   35   91 1    
    70   36   92 1    
    71   36   93 1    
    72   36   94 1    
    73   37   38 2    
    74   37   39 am   BACKBONE|DICT|INTERRES
    75   39   40 1    
    76   39   95 1    
    77   40   41 1    
    78   40   42 1    
    79   40   96 1    
    80   41   97 1    
    81   41   98 1    
    82   41   99 1    
    83   42   43 2    
    84   42   44 am   BACKBONE|DICT|INTERRES
    85   44   45 1    
    86   44  100 1    
    87   45   46 1    
    88   45   47 1    
    89   45  101 1    
    90   46  102 1    
    91   46  103 1    
    92   46  104 1    
    93   47   48 2    
    94   47   49 am   BACKBONE|DICT|INTERRES
    95   49   50 1    
    96   49  105 1    
    97   50   51 1    
    98   50   52 1    
    99   50  106 1    
   100   51  107 1    
   101   51  108 1    
   102   51  109 1    
   103   52   53 2    
   104   52   54 am   BACKBONE|DICT|INTERRES
   105   54   55 1    
   106   54  110 1    
   107   55   56 1    
   108   55   59 1    
   109   55  111 1    
   110   56   57 am   BACKBONE|DICT|INTERRES
   111   56   58 2    
   112   57  112 1    
   113   57  113 1    
   114   59   60 1    
   115   59  114 1    
   116   59  115 1    
   117   60   61 1    
   118   61  116 1    
   119   61  117 1    
@<TRIPOS>SUBSTRUCTURE
     1 UNK         1 GROUP             0       ****    0 ROOT    
