@<TRIPOS>MOLECULE
3R8
117   119    1
SMALL
USER_CHARGES


@<TRIPOS>ATOM
      1 CA         15.8625  -24.7875  -49.2514 C.3       0 UNK        -0.2013 
      2 C          16.5979  -25.5012  -48.1262 C.2       0 UNK         0.4866 
      3 O          16.1959  -25.3808  -46.9685 O.2       0 UNK        -0.5176 
      4 N          17.6593  -26.2470  -48.4688 N.am      1 UNK        -0.4884 
      5 CA         18.5657  -26.9784  -47.5689 C.3       1 UNK         0.0853 
      6 C6         17.8171  -27.9309  -46.5939 C.3       10 UNK        -0.0849 
      7 S7         18.7727  -29.4273  -46.1749 S.3       10 UNK        -0.2776 
      8 C8         17.5074  -30.4119  -45.3100 C.3       10 UNK         0.0316 
      9 C9         17.4520  -30.0821  -43.8250 C.ar      10 UNK        -0.0863 
     10 C10        18.1174  -30.8982  -42.9059 C.ar      10 UNK        -0.1009 
     11 C11        18.0651  -30.6157  -41.5383 C.ar      10 UNK        -0.0712 
     12 C12        17.3448  -29.5075  -41.0889 C.ar      10 UNK        -0.0894 
     13 C13        16.7034  -28.6636  -42.0010 C.ar      10 UNK        -0.0745 
     14 C14        16.7400  -28.9692  -43.3654 C.ar      10 UNK        -0.0972 
     15 C15        16.0087  -27.4006  -41.5124 C.3       10 UNK         0.0209 
     16 S16        17.1672  -26.2746  -40.6626 S.3       10 UNK        -0.2568 
     17 C17        18.3411  -25.8314  -41.9928 C.3       10 UNK        -0.0983 
     18 CA         19.6022  -26.7450  -42.0666 C.3       3 UNK         0.0876 
     19 N          20.2195  -26.7163  -43.3977 N.am      3 UNK        -0.4424 
     20 C          20.8890  -25.6882  -43.9443 C.2       2 UNK         0.4918 
     21 O          21.0156  -24.5801  -43.4221 O.2       2 UNK        -0.4875 
     22 CA         21.5123  -25.9429  -45.3268 C.3       2 UNK         0.0481 
     23 CB         22.8113  -26.7551  -45.1985 C.3       2 UNK        -0.1831 
     24 N          20.5761  -26.6338  -46.2155 N.am      2 UNK        -0.4498 
     25 C          19.5384  -26.0388  -46.8190 C.2       1 UNK         0.5027 
     26 O          19.3494  -24.8195  -46.7935 O.2       1 UNK        -0.4969 
     27 C          20.6543  -26.5187  -40.9514 C.2       3 UNK         0.5005 
     28 O          21.8150  -26.8921  -41.1342 O.2       3 UNK        -0.5279 
     29 N          20.2388  -25.9427  -39.8130 N.am      4 UNK        -0.4463 
     30 CA         21.0659  -25.4532  -38.6975 C.3       4 UNK         0.0283 
     31 CB         21.7974  -24.1643  -39.1285 C.3       4 UNK        -0.1875 
     32 C          22.0362  -26.4882  -38.0847 C.2       4 UNK         0.4949 
     33 O          23.0747  -26.1008  -37.5468 O.2       4 UNK        -0.5039 
     34 N          21.6876  -27.7800  -38.1849 N.am      5 UNK        -0.4663 
     35 CA         22.4918  -28.9467  -37.7949 C.3       5 UNK         0.0242 
     36 CB         22.6855  -28.9994  -36.2637 C.3       5 UNK        -0.1982 
     37 C          23.8193  -29.0771  -38.5762 C.2       5 UNK         0.5017 
     38 O          24.7879  -29.6215  -38.0415 O.2       5 UNK        -0.5012 
     39 N          23.8450  -28.5879  -39.8258 N.am      6 UNK        -0.4439 
     40 CA         24.9581  -28.7368  -40.7683 C.3       6 UNK         0.0297 
     41 CB         24.7552  -27.7468  -41.9301 C.3       6 UNK        -0.2006 
     42 C          25.0884  -30.1796  -41.2949 C.2       6 UNK         0.4892 
     43 O          24.2562  -31.0354  -40.9880 O.2       6 UNK        -0.5089 
     44 N          26.1158  -30.4158  -42.1249 N.am      7 UNK        -0.4243 
     45 CA         26.4398  -31.7080  -42.7492 C.3       7 UNK         0.0196 
     46 CB         27.6901  -31.5439  -43.6281 C.3       7 UNK        -0.2007 
     47 C          25.2965  -32.3503  -43.5606 C.2       7 UNK         0.5020 
     48 O          25.2588  -33.5754  -43.6780 O.2       7 UNK        -0.5147 
     49 N          24.3600  -31.5294  -44.0593 N.am      8 UNK        -0.4734 
     50 CA         23.1122  -31.9577  -44.7028 C.3       8 UNK         0.0238 
     51 CB         22.3620  -30.7204  -45.2226 C.3       8 UNK        -0.1912 
     52 C          22.1884  -32.7868  -43.7879 C.2       8 UNK         0.5038 
     53 O          21.3948  -33.5763  -44.3015 O.2       8 UNK        -0.5046 
     54 N          22.3124  -32.6060  -42.4663 N.am      9 UNK        -0.4200 
     55 CA         21.6052  -33.3827  -41.4391 C.3       9 UNK         0.0839 
     56 C          22.2628  -34.7588  -41.1277 C.2       9 UNK         0.5513 
     57 N          23.4058  -35.1096  -41.7078 N.am      9 UNK        -0.7519 
     58 O          21.7150  -35.5340  -40.3482 O.2       9 UNK        -0.4960 
     59 C59        21.3777  -32.5586  -40.1413 C.3       10 UNK        -0.0876 
     60 S60        20.5539  -30.9606  -40.4523 S.3       10 UNK        -0.2414 
     61 C61        18.8190  -31.4905  -40.5546 C.3       10 UNK         0.0169 
     62 H62        15.8842  -23.7103  -49.0883 H         1 UNK         0.0903 
     63 H63        16.3066  -24.9916  -50.2256 H         1 UNK         0.0903 
     64 H64        14.8210  -25.1067  -49.2806 H         1 UNK         0.0903 
     65 H65        17.9298  -26.2724  -49.4428 H         1 UNK         0.3096 
     66 H66        19.1797  -27.5843  -48.2380 H         1 UNK         0.1121 
     67 H67        16.8847  -28.2664  -47.0510 H         1 UNK         0.0849 
     68 H68        17.5305  -27.4074  -45.6806 H         1 UNK         0.0849 
     69 H69        16.5281  -30.2620  -45.7668 H         1 UNK         0.0865 
     70 H70        17.7401  -31.4691  -45.4475 H         1 UNK         0.0865 
     71 H71        18.6867  -31.7503  -43.2532 H         1 UNK         0.1346 
     72 H72        17.3200  -29.2740  -40.0331 H         1 UNK         0.1412 
     73 H73        16.2272  -28.3306  -44.0706 H         1 UNK         0.1426 
     74 H74        15.2120  -27.6776  -40.8208 H         1 UNK         0.0716 
     75 H75        15.5318  -26.8681  -42.3368 H         1 UNK         0.0716 
     76 H76        18.6288  -24.7848  -41.8768 H         1 UNK         0.0695 
     77 H77        17.7975  -25.8773  -42.9381 H         1 UNK         0.0695 
     78 H78        19.2860  -27.7788  -41.9395 H         1 UNK         0.0983 
     79 H79        20.1838  -27.5867  -43.9062 H         1 UNK         0.3095 
     80 H80        21.7671  -24.9767  -45.7680 H         1 UNK         0.0454 
     81 H81        22.6381  -27.7346  -44.7544 H         1 UNK         0.0851 
     82 H82        23.5308  -26.2354  -44.5642 H         1 UNK         0.0851 
     83 H83        23.2849  -26.9043  -46.1689 H         1 UNK         0.0851 
     84 H84        20.6604  -27.6388  -46.2865 H         1 UNK         0.2976 
     85 H85        19.2479  -25.7400  -39.7451 H         1 UNK         0.3116 
     86 H86        20.3712  -25.1878  -37.8995 H         1 UNK         0.0646 
     87 H87        22.5461  -24.3672  -39.8954 H         1 UNK         0.0847 
     88 H88        22.3101  -23.6981  -38.2862 H         1 UNK         0.0847 
     89 H89        21.1016  -23.4264  -39.5278 H         1 UNK         0.0847 
     90 H90        20.8206  -27.9872  -38.6610 H         1 UNK         0.3040 
     91 H91        21.9058  -29.8234  -38.0724 H         1 UNK         0.1015 
     92 H92        23.3341  -28.1984  -35.9081 H         1 UNK         0.0786 
     93 H93        23.1405  -29.9429  -35.9595 H         1 UNK         0.0786 
     94 H94        21.7330  -28.9186  -35.7399 H         1 UNK         0.0786 
     95 H95        23.0135  -28.1270  -40.1873 H         1 UNK         0.3172 
     96 H96        25.8835  -28.4816  -40.2483 H         1 UNK         0.0595 
     97 H97        25.6117  -27.7310  -42.6044 H         1 UNK         0.0839 
     98 H98        24.6216  -26.7287  -41.5633 H         1 UNK         0.0839 
     99 H99        23.8756  -28.0018  -42.5224 H         1 UNK         0.0839 
    100 H100       26.7483  -29.6552  -42.3284 H         1 UNK         0.2998 
    101 H101       26.6794  -32.4012  -41.9402 H         1 UNK         0.0822 
    102 H102       27.9736  -32.4930  -44.0857 H         1 UNK         0.0787 
    103 H103       27.5245  -30.8297  -44.4358 H         1 UNK         0.0787 
    104 H104       28.5451  -31.2014  -43.0448 H         1 UNK         0.0787 
    105 H105       24.4774  -30.5384  -43.9094 H         1 UNK         0.3055 
    106 H106       23.3775  -32.5887  -45.5539 H         1 UNK         0.1106 
    107 H107       21.4624  -31.0134  -45.7659 H         1 UNK         0.0828 
    108 H108       22.0474  -30.0701  -44.4054 H         1 UNK         0.0828 
    109 H109       22.9762  -30.1367  -45.9083 H         1 UNK         0.0828 
    110 H110       23.0038  -31.9506  -42.1120 H         1 UNK         0.2931 
    111 H111       20.6183  -33.6237  -41.8374 H         1 UNK         0.0412 
    112 H112       23.8729  -34.4929  -42.3612 H         1 UNK         0.3472 
    113 H113       23.8087  -36.0082  -41.4938 H         1 UNK         0.3472 
    114 H114       22.3314  -32.3556  -39.6512 H         1 UNK         0.0970 
    115 H115       20.7839  -33.1238  -39.4203 H         1 UNK         0.0970 
    116 H116       18.7534  -32.5313  -40.8737 H         1 UNK         0.0612 
    117 H117       18.3672  -31.4421  -39.5627 H         1 UNK         0.0612 
@<TRIPOS>BOND
     1    1    2 1    
     2    1   62 1    
     3    1   63 1    
     4    1   64 1    
     5    2    3 2    
     6    2    4 am   BACKBONE|DICT|INTERRES
     7    4    5 1    
     8    4   65 1    
     9    5    6 1    
    10    5   25 1    
    11    5   66 1    
    12    6    7 1    
    13    6   67 1    
    14    6   68 1    
    15    7    8 1    
    16    8    9 1    
    17    8   69 1    
    18    8   70 1    
    19    9   10 ar   
    20    9   14 ar   
    21   10   11 ar   
    22   10   71 1    
    23   11   12 ar   
    24   11   61 1    
    25   12   13 ar   
    26   12   72 1    
    27   13   14 ar   
    28   13   15 1    
    29   14   73 1    
    30   15   16 1    
    31   15   74 1    
    32   15   75 1    
    33   16   17 1    
    34   17   18 1    
    35   17   76 1    
    36   17   77 1    
    37   18   19 1    
    38   18   27 1    
    39   18   78 1    
    40   19   20 am   BACKBONE|DICT|INTERRES
    41   19   79 1    
    42   20   21 2    
    43   20   22 1    
    44   22   23 1    
    45   22   24 1    
    46   22   80 1    
    47   23   81 1    
    48   23   82 1    
    49   23   83 1    
    50   24   25 am   BACKBONE|DICT|INTERRES
    51   24   84 1    
    52   25   26 2    
    53   27   28 2    
    54   27   29 am   BACKBONE|DICT|INTERRES
    55   29   30 1    
    56   29   85 1    
    57   30   31 1    
    58   30   32 1    
    59   30   86 1    
    60   31   87 1    
    61   31   88 1    
    62   31   89 1    
    63   32   33 2    
    64   32   34 am   BACKBONE|DICT|INTERRES
    65   34   35 1    
    66   34   90 1    
    67   35   36 1    
    68   35   37 1    
    69   35   91 1    
    70   36   92 1    
    71   36   93 1    
    72   36   94 1    
    73   37   38 2    
    74   37   39 am   BACKBONE|DICT|INTERRES
    75   39   40 1    
    76   39   95 1    
    77   40   41 1    
    78   40   42 1    
    79   40   96 1    
    80   41   97 1    
    81   41   98 1    
    82   41   99 1    
    83   42   43 2    
    84   42   44 am   BACKBONE|DICT|INTERRES
    85   44   45 1    
    86   44  100 1    
    87   45   46 1    
    88   45   47 1    
    89   45  101 1    
    90   46  102 1    
    91   46  103 1    
    92   46  104 1    
    93   47   48 2    
    94   47   49 am   BACKBONE|DICT|INTERRES
    95   49   50 1    
    96   49  105 1    
    97   50   51 1    
    98   50   52 1    
    99   50  106 1    
   100   51  107 1    
   101   51  108 1    
   102   51  109 1    
   103   52   53 2    
   104   52   54 am   BACKBONE|DICT|INTERRES
   105   54   55 1    
   106   54  110 1    
   107   55   56 1    
   108   55   59 1    
   109   55  111 1    
   110   56   57 am   BACKBONE|DICT|INTERRES
   111   56   58 2    
   112   57  112 1    
   113   57  113 1    
   114   59   60 1    
   115   59  114 1    
   116   59  115 1    
   117   60   61 1    
   118   61  116 1    
   119   61  117 1    
@<TRIPOS>SUBSTRUCTURE
     1 UNK         1 GROUP             0       ****    0 ROOT    
