@<TRIPOS>MOLECULE
3R8
117   119    1
SMALL
USER_CHARGES


@<TRIPOS>ATOM
      1 CA         13.6209  -23.6352  -42.2612 C.3       0 UNK        -0.2013 
      2 C          14.8432  -24.2885  -42.8889 C.2       0 UNK         0.4866 
      3 O          15.0056  -24.2386  -44.1086 O.2       0 UNK        -0.5176 
      4 N          15.7007  -24.9078  -42.0676 N.am      1 UNK        -0.4884 
      5 CA         16.9606  -25.5251  -42.4905 C.3       1 UNK         0.0853 
      6 C6         17.4896  -26.4967  -41.4061 C.3       10 UNK        -0.0849 
      7 S7         18.7968  -27.5933  -42.0412 S.3       10 UNK        -0.2776 
      8 C8         17.8174  -29.0289  -42.5801 C.3       10 UNK         0.0316 
      9 C9         18.6410  -29.8843  -43.5248 C.ar      10 UNK        -0.0863 
     10 C10        19.3473  -30.9903  -43.0495 C.ar      10 UNK        -0.1009 
     11 C11        20.1746  -31.7277  -43.9018 C.ar      10 UNK        -0.0712 
     12 C12        20.2936  -31.3448  -45.2420 C.ar      10 UNK        -0.0894 
     13 C13        19.5905  -30.2375  -45.7299 C.ar      10 UNK        -0.0745 
     14 C14        18.7434  -29.5303  -44.8711 C.ar      10 UNK        -0.0972 
     15 C15        19.7851  -29.7793  -47.1712 C.3       10 UNK         0.0209 
     16 S16        20.1310  -27.9900  -47.3128 S.3       10 UNK        -0.2568 
     17 C17        21.5788  -27.7971  -46.2178 C.3       10 UNK        -0.0983 
     18 CA         21.9376  -26.3096  -45.9866 C.3       3 UNK         0.0876 
     19 N          20.8605  -25.5726  -45.3139 N.am      3 UNK        -0.4424 
     20 C          20.7099  -24.2428  -45.3877 C.2       2 UNK         0.4918 
     21 O          21.4196  -23.5247  -46.0943 O.2       2 UNK        -0.4875 
     22 CA         19.5980  -23.5903  -44.5443 C.3       2 UNK         0.0481 
     23 CB         18.8553  -22.4848  -45.3211 C.3       2 UNK        -0.1831 
     24 N          18.6281  -24.5581  -44.0219 N.am      2 UNK        -0.4498 
     25 C          17.9930  -24.4337  -42.8482 C.2       1 UNK         0.5027 
     26 O          18.1875  -23.5084  -42.0548 O.2       1 UNK        -0.4969 
     27 C          23.2341  -26.1926  -45.1630 C.2       3 UNK         0.5005 
     28 O          23.1715  -26.1136  -43.9332 O.2       3 UNK        -0.5279 
     29 N          24.3883  -26.2317  -45.8451 N.am      4 UNK        -0.4463 
     30 CA         25.7277  -26.0989  -45.2524 C.3       4 UNK         0.0283 
     31 CB         26.7767  -26.0552  -46.3754 C.3       4 UNK        -0.1875 
     32 C          26.0900  -27.1888  -44.2247 C.2       4 UNK         0.4949 
     33 O          26.9218  -26.9412  -43.3517 O.2       4 UNK        -0.5039 
     34 N          25.4523  -28.3621  -44.3327 N.am      5 UNK        -0.4663 
     35 CA         25.5675  -29.4676  -43.3784 C.3       5 UNK         0.0242 
     36 CB         25.0309  -30.7488  -44.0401 C.3       5 UNK        -0.1982 
     37 C          24.8323  -29.2161  -42.0472 C.2       5 UNK         0.5017 
     38 O          25.1207  -29.9158  -41.0750 O.2       5 UNK        -0.5012 
     39 N          23.8917  -28.2559  -42.0305 N.am      6 UNK        -0.4439 
     40 CA         22.9365  -27.9642  -40.9545 C.3       6 UNK         0.0297 
     41 CB         23.6700  -27.4529  -39.6939 C.3       6 UNK        -0.2006 
     42 C          21.9959  -29.1546  -40.6696 C.2       6 UNK         0.4892 
     43 O          21.9114  -30.0838  -41.4720 O.2       6 UNK        -0.5089 
     44 N          21.3056  -29.1221  -39.5227 N.am      7 UNK        -0.4243 
     45 CA         20.3446  -30.1418  -39.0811 C.3       7 UNK         0.0196 
     46 CB         19.4444  -29.5266  -37.9951 C.3       7 UNK        -0.2007 
     47 C          20.9795  -31.4682  -38.6029 C.2       7 UNK         0.5020 
     48 O          20.2725  -32.3028  -38.0365 O.2       7 UNK        -0.5147 
     49 N          22.2898  -31.6508  -38.8202 N.am      8 UNK        -0.4734 
     50 CA         23.1040  -32.7790  -38.3558 C.3       8 UNK         0.0238 
     51 CB         24.5704  -32.5220  -38.7391 C.3       8 UNK        -0.1912 
     52 C          22.6579  -34.1655  -38.8547 C.2       8 UNK         0.5038 
     53 O          22.9632  -35.1571  -38.1902 O.2       8 UNK        -0.5046 
     54 N          21.9495  -34.2205  -39.9912 N.am      9 UNK        -0.4200 
     55 CA         21.3306  -35.4483  -40.5150 C.3       9 UNK         0.0839 
     56 C          20.0461  -35.9039  -39.7578 C.2       9 UNK         0.5513 
     57 N          19.4874  -35.1157  -38.8451 N.am      9 UNK        -0.7519 
     58 O          19.5569  -37.0058  -39.9938 O.2       9 UNK        -0.4960 
     59 C59        21.1384  -35.3973  -42.0545 C.3       10 UNK        -0.0876 
     60 S60        19.9088  -34.1738  -42.6259 S.3       10 UNK        -0.2414 
     61 C61        20.9810  -32.8986  -43.3562 C.3       10 UNK         0.0169 
     62 H62        12.7103  -24.0662  -42.6764 H         1 UNK         0.0903 
     63 H63        13.5964  -23.7687  -41.1798 H         1 UNK         0.0903 
     64 H64        13.6182  -22.5659  -42.4709 H         1 UNK         0.0903 
     65 H65        15.5349  -24.8858  -41.0712 H         1 UNK         0.3096 
     66 H66        16.7445  -26.1063  -43.3901 H         1 UNK         0.1121 
     67 H67        16.6773  -27.1168  -41.0226 H         1 UNK         0.0849 
     68 H68        17.8768  -25.9497  -40.5441 H         1 UNK         0.0849 
     69 H69        16.9080  -28.6971  -43.0835 H         1 UNK         0.0865 
     70 H70        17.5011  -29.6046  -41.7088 H         1 UNK         0.0865 
     71 H71        19.2822  -31.2648  -42.0069 H         1 UNK         0.1346 
     72 H72        20.9534  -31.8943  -45.8994 H         1 UNK         0.1412 
     73 H73        18.2069  -28.6664  -45.2386 H         1 UNK         0.1426 
     74 H74        18.8847  -30.0120  -47.7410 H         1 UNK         0.0716 
     75 H75        20.6021  -30.3269  -47.6437 H         1 UNK         0.0716 
     76 H76        22.4121  -28.3330  -46.6762 H         1 UNK         0.0695 
     77 H77        21.3853  -28.2874  -45.2618 H         1 UNK         0.0695 
     78 H78        22.1154  -25.8501  -46.9619 H         1 UNK         0.0983 
     79 H79        20.3139  -26.0964  -44.6478 H         1 UNK         0.3095 
     80 H80        20.1171  -23.1222  -43.7054 H         1 UNK         0.0454 
     81 H81        18.3354  -22.8875  -46.1909 H         1 UNK         0.0851 
     82 H82        19.5441  -21.7176  -45.6770 H         1 UNK         0.0851 
     83 H83        18.1182  -21.9839  -44.6934 H         1 UNK         0.0851 
     84 H84        18.3909  -25.3274  -44.6330 H         1 UNK         0.2976 
     85 H85        24.3532  -26.3155  -46.8518 H         1 UNK         0.3116 
     86 H86        25.7549  -25.1428  -44.7253 H         1 UNK         0.0646 
     87 H87        26.7797  -26.9745  -46.9623 H         1 UNK         0.0847 
     88 H88        27.7805  -25.9275  -45.9672 H         1 UNK         0.0847 
     89 H89        26.5995  -25.2212  -47.0547 H         1 UNK         0.0847 
     90 H90        24.7986  -28.4809  -45.0923 H         1 UNK         0.3040 
     91 H91        26.6243  -29.6150  -43.1441 H         1 UNK         0.1015 
     92 H92        25.5732  -30.9825  -44.9564 H         1 UNK         0.0786 
     93 H93        23.9710  -30.6623  -44.2854 H         1 UNK         0.0786 
     94 H94        25.1387  -31.6059  -43.3737 H         1 UNK         0.0786 
     95 H95        23.7473  -27.7132  -42.8764 H         1 UNK         0.3172 
     96 H96        22.3052  -27.1568  -41.3287 H         1 UNK         0.0595 
     97 H97        24.2048  -28.2528  -39.1802 H         1 UNK         0.0839 
     98 H98        22.9767  -27.0090  -38.9792 H         1 UNK         0.0839 
     99 H99        24.3957  -26.6802  -39.9483 H         1 UNK         0.0839 
    100 H100       21.4402  -28.3367  -38.9030 H         1 UNK         0.2998 
    101 H101       19.7086  -30.3909  -39.9314 H         1 UNK         0.0822 
    102 H102       18.9472  -28.6260  -38.3566 H         1 UNK         0.0787 
    103 H103       18.6609  -30.2219  -37.6906 H         1 UNK         0.0787 
    104 H104       20.0128  -29.2641  -37.1021 H         1 UNK         0.0787 
    105 H105       22.7754  -30.9369  -39.3458 H         1 UNK         0.3055 
    106 H106       23.0327  -32.8000  -37.2662 H         1 UNK         0.1106 
    107 H107       25.2174  -33.3224  -38.3772 H         1 UNK         0.0828 
    108 H108       24.9385  -31.5907  -38.3080 H         1 UNK         0.0828 
    109 H109       24.6988  -32.4622  -39.8209 H         1 UNK         0.0828 
    110 H110       21.7162  -33.3587  -40.4612 H         1 UNK         0.2931 
    111 H111       22.0491  -36.2521  -40.3420 H         1 UNK         0.0412 
    112 H112       19.8708  -34.2006  -38.6347 H         1 UNK         0.3472 
    113 H113       18.6614  -35.4326  -38.3631 H         1 UNK         0.3472 
    114 H114       22.0977  -35.2061  -42.5378 H         1 UNK         0.0970 
    115 H115       20.8263  -36.3772  -42.4207 H         1 UNK         0.0970 
    116 H116       21.5846  -33.3516  -44.1442 H         1 UNK         0.0612 
    117 H117       21.6766  -32.5317  -42.6007 H         1 UNK         0.0612 
@<TRIPOS>BOND
     1    1    2 1    
     2    1   62 1    
     3    1   63 1    
     4    1   64 1    
     5    2    3 2    
     6    2    4 am   BACKBONE|DICT|INTERRES
     7    4    5 1    
     8    4   65 1    
     9    5    6 1    
    10    5   25 1    
    11    5   66 1    
    12    6    7 1    
    13    6   67 1    
    14    6   68 1    
    15    7    8 1    
    16    8    9 1    
    17    8   69 1    
    18    8   70 1    
    19    9   10 ar   
    20    9   14 ar   
    21   10   11 ar   
    22   10   71 1    
    23   11   12 ar   
    24   11   61 1    
    25   12   13 ar   
    26   12   72 1    
    27   13   14 ar   
    28   13   15 1    
    29   14   73 1    
    30   15   16 1    
    31   15   74 1    
    32   15   75 1    
    33   16   17 1    
    34   17   18 1    
    35   17   76 1    
    36   17   77 1    
    37   18   19 1    
    38   18   27 1    
    39   18   78 1    
    40   19   20 am   BACKBONE|DICT|INTERRES
    41   19   79 1    
    42   20   21 2    
    43   20   22 1    
    44   22   23 1    
    45   22   24 1    
    46   22   80 1    
    47   23   81 1    
    48   23   82 1    
    49   23   83 1    
    50   24   25 am   BACKBONE|DICT|INTERRES
    51   24   84 1    
    52   25   26 2    
    53   27   28 2    
    54   27   29 am   BACKBONE|DICT|INTERRES
    55   29   30 1    
    56   29   85 1    
    57   30   31 1    
    58   30   32 1    
    59   30   86 1    
    60   31   87 1    
    61   31   88 1    
    62   31   89 1    
    63   32   33 2    
    64   32   34 am   BACKBONE|DICT|INTERRES
    65   34   35 1    
    66   34   90 1    
    67   35   36 1    
    68   35   37 1    
    69   35   91 1    
    70   36   92 1    
    71   36   93 1    
    72   36   94 1    
    73   37   38 2    
    74   37   39 am   BACKBONE|DICT|INTERRES
    75   39   40 1    
    76   39   95 1    
    77   40   41 1    
    78   40   42 1    
    79   40   96 1    
    80   41   97 1    
    81   41   98 1    
    82   41   99 1    
    83   42   43 2    
    84   42   44 am   BACKBONE|DICT|INTERRES
    85   44   45 1    
    86   44  100 1    
    87   45   46 1    
    88   45   47 1    
    89   45  101 1    
    90   46  102 1    
    91   46  103 1    
    92   46  104 1    
    93   47   48 2    
    94   47   49 am   BACKBONE|DICT|INTERRES
    95   49   50 1    
    96   49  105 1    
    97   50   51 1    
    98   50   52 1    
    99   50  106 1    
   100   51  107 1    
   101   51  108 1    
   102   51  109 1    
   103   52   53 2    
   104   52   54 am   BACKBONE|DICT|INTERRES
   105   54   55 1    
   106   54  110 1    
   107   55   56 1    
   108   55   59 1    
   109   55  111 1    
   110   56   57 am   BACKBONE|DICT|INTERRES
   111   56   58 2    
   112   57  112 1    
   113   57  113 1    
   114   59   60 1    
   115   59  114 1    
   116   59  115 1    
   117   60   61 1    
   118   61  116 1    
   119   61  117 1    
@<TRIPOS>SUBSTRUCTURE
     1 UNK         1 GROUP             0       ****    0 ROOT    
