@<TRIPOS>MOLECULE
3R8
117   119    1
SMALL
USER_CHARGES


@<TRIPOS>ATOM
      1 CA         17.2376  -25.5898  -40.1068 C.3       0 UNK        -0.2013 
      2 C          17.0485  -25.3979  -41.6039 C.2       0 UNK         0.4866 
      3 O          16.9856  -24.2625  -42.0756 O.2       0 UNK        -0.5176 
      4 N          16.9759  -26.4981  -42.3638 N.am      1 UNK        -0.4884 
      5 CA         16.7680  -26.5399  -43.8191 C.3       1 UNK         0.0853 
      6 C6         16.1435  -27.9032  -44.2203 C.3       10 UNK        -0.0849 
      7 S7         15.4388  -27.9255  -45.9079 S.3       10 UNK        -0.2776 
      8 C8         15.5007  -29.6989  -46.3378 C.3       10 UNK         0.0316 
      9 C9         16.8958  -30.3046  -46.2192 C.ar      10 UNK        -0.0863 
     10 C10        17.1763  -31.2107  -45.1906 C.ar      10 UNK        -0.1009 
     11 C11        18.4456  -31.7826  -45.0722 C.ar      10 UNK        -0.0712 
     12 C12        19.4349  -31.4561  -46.0019 C.ar      10 UNK        -0.0894 
     13 C13        19.1777  -30.5341  -47.0222 C.ar      10 UNK        -0.0745 
     14 C14        17.9024  -29.9680  -47.1318 C.ar      10 UNK        -0.0972 
     15 C15        20.2854  -30.1514  -47.9975 C.3       10 UNK         0.0209 
     16 S16        21.0956  -28.5720  -47.5676 S.3       10 UNK        -0.2568 
     17 C17        21.7533  -28.9233  -45.8998 C.3       10 UNK        -0.0983 
     18 CA         22.1634  -27.6662  -45.0926 C.3       3 UNK         0.0876 
     19 N          21.1379  -26.6196  -45.1386 N.am      3 UNK        -0.4424 
     20 C          21.2045  -25.3960  -44.6019 C.2       2 UNK         0.4918 
     21 O          22.1778  -24.9738  -43.9774 O.2       2 UNK        -0.4875 
     22 CA         19.9604  -24.5021  -44.7645 C.3       2 UNK         0.0481 
     23 CB         19.7848  -24.0545  -46.2287 C.3       2 UNK        -0.1831 
     24 N          18.7182  -25.0812  -44.2272 N.am      2 UNK        -0.4498 
     25 C          18.0592  -26.1880  -44.6046 C.2       1 UNK         0.5027 
     26 O          18.4511  -26.9225  -45.5110 O.2       1 UNK        -0.4969 
     27 C          22.4788  -28.0923  -43.6468 C.2       3 UNK         0.5005 
     28 O          23.6271  -28.4132  -43.3386 O.2       3 UNK        -0.5279 
     29 N          21.4475  -28.0698  -42.7870 N.am      4 UNK        -0.4463 
     30 CA         21.4583  -28.4550  -41.3732 C.3       4 UNK         0.0283 
     31 CB         20.0555  -28.2405  -40.7865 C.3       4 UNK        -0.1875 
     32 C          22.5132  -27.7419  -40.5102 C.2       4 UNK         0.4949 
     33 O          22.9123  -28.2965  -39.4887 O.2       4 UNK        -0.5039 
     34 N          22.9879  -26.5672  -40.9486 N.am      5 UNK        -0.4663 
     35 CA         24.1173  -25.8504  -40.3494 C.3       5 UNK         0.0242 
     36 CB         24.2561  -24.4788  -41.0289 C.3       5 UNK        -0.1982 
     37 C          25.4499  -26.6245  -40.4195 C.2       5 UNK         0.5017 
     38 O          26.3093  -26.4048  -39.5652 O.2       5 UNK        -0.5012 
     39 N          25.5921  -27.5104  -41.4158 N.am      6 UNK        -0.4439 
     40 CA         26.7365  -28.4053  -41.5924 C.3       6 UNK         0.0297 
     41 CB         27.3437  -28.1812  -42.9872 C.3       6 UNK        -0.2006 
     42 C          26.3312  -29.8773  -41.4162 C.2       6 UNK         0.4892 
     43 O          27.0829  -30.6363  -40.8040 O.2       6 UNK        -0.5089 
     44 N          25.1676  -30.2622  -41.9609 N.am      7 UNK        -0.4243 
     45 CA         24.6672  -31.6394  -41.9760 C.3       7 UNK         0.0196 
     46 CB         23.5763  -31.7667  -43.0542 C.3       7 UNK        -0.2007 
     47 C          24.1313  -32.1305  -40.6211 C.2       7 UNK         0.5020 
     48 O          24.0960  -33.3415  -40.4047 O.2       7 UNK        -0.5147 
     49 N          23.6934  -31.2022  -39.7552 N.am      8 UNK        -0.4734 
     50 CA         23.0806  -31.4309  -38.4359 C.3       8 UNK         0.0238 
     51 CB         24.0924  -32.0785  -37.4660 C.3       8 UNK        -0.1912 
     52 C          21.7354  -32.1894  -38.4756 C.2       8 UNK         0.5038 
     53 O          21.3003  -32.6973  -37.4400 O.2       8 UNK        -0.5046 
     54 N          21.1010  -32.2587  -39.6534 N.am      9 UNK        -0.4200 
     55 CA         19.8064  -32.9122  -39.8771 C.3       9 UNK         0.0839 
     56 C          18.5999  -32.1097  -39.3120 C.2       9 UNK         0.5513 
     57 N          17.4535  -32.7562  -39.1477 N.am      9 UNK        -0.7519 
     58 O          18.6820  -30.9146  -39.0359 O.2       9 UNK        -0.4960 
     59 C59        19.6295  -33.3205  -41.3640 C.3       10 UNK        -0.0876 
     60 S60        19.5764  -31.9299  -42.5485 S.3       10 UNK        -0.2414 
     61 C61        18.7478  -32.7556  -43.9440 C.3       10 UNK         0.0169 
     62 H62        16.4220  -25.1141  -39.5627 H         1 UNK         0.0903 
     63 H63        17.2604  -26.6434  -39.8287 H         1 UNK         0.0903 
     64 H64        18.1732  -25.1331  -39.7851 H         1 UNK         0.0903 
     65 H65        17.0533  -27.4008  -41.9169 H         1 UNK         0.3096 
     66 H66        16.0418  -25.7632  -44.0706 H         1 UNK         0.1121 
     67 H67        15.3304  -28.1559  -43.5377 H         1 UNK         0.0849 
     68 H68        16.8859  -28.6926  -44.1030 H         1 UNK         0.0849 
     69 H69        14.7929  -30.2373  -45.7055 H         1 UNK         0.0865 
     70 H70        15.1441  -29.8243  -47.3612 H         1 UNK         0.0865 
     71 H71        16.4075  -31.4667  -44.4741 H         1 UNK         0.1346 
     72 H72        20.4181  -31.8973  -45.9098 H         1 UNK         0.1412 
     73 H73        17.6979  -29.2512  -47.9155 H         1 UNK         0.1426 
     74 H74        21.0413  -30.9370  -48.0435 H         1 UNK         0.0716 
     75 H75        19.8714  -30.0707  -49.0035 H         1 UNK         0.0716 
     76 H76        20.9881  -29.4630  -45.3434 H         1 UNK         0.0695 
     77 H77        22.5991  -29.6064  -45.9999 H         1 UNK         0.0695 
     78 H78        23.0760  -27.2514  -45.5250 H         1 UNK         0.0983 
     79 H79        20.2601  -26.8783  -45.5874 H         1 UNK         0.3095 
     80 H80        20.1419  -23.6040  -44.1721 H         1 UNK         0.0454 
     81 H81        19.5807  -24.8930  -46.8952 H         1 UNK         0.0851 
     82 H82        18.9655  -23.3428  -46.3284 H         1 UNK         0.0851 
     83 H83        20.6865  -23.5626  -46.5957 H         1 UNK         0.0851 
     84 H84        18.3006  -24.5684  -43.4542 H         1 UNK         0.2976 
     85 H85        20.5538  -27.7874  -43.1617 H         1 UNK         0.3116 
     86 H86        21.6807  -29.5223  -41.3336 H         1 UNK         0.0646 
     87 H87        19.7499  -27.1957  -40.8466 H         1 UNK         0.0847 
     88 H88        19.3108  -28.8456  -41.3042 H         1 UNK         0.0847 
     89 H89        20.0234  -28.5301  -39.7349 H         1 UNK         0.0847 
     90 H90        22.6119  -26.1853  -41.8065 H         1 UNK         0.3040 
     91 H91        23.8899  -25.6923  -39.2928 H         1 UNK         0.1015 
     92 H92        24.4603  -24.5768  -42.0962 H         1 UNK         0.0786 
     93 H93        25.0743  -23.9057  -40.5904 H         1 UNK         0.0786 
     94 H94        23.3486  -23.8855  -40.9153 H         1 UNK         0.0786 
     95 H95        24.8214  -27.6305  -42.0679 H         1 UNK         0.3172 
     96 H96        27.5089  -28.1889  -40.8515 H         1 UNK         0.0595 
     97 H97        28.1958  -28.8417  -43.1535 H         1 UNK         0.0839 
     98 H98        27.7004  -27.1576  -43.1021 H         1 UNK         0.0839 
     99 H99        26.6202  -28.3737  -43.7808 H         1 UNK         0.0839 
    100 H100       24.6181  -29.5793  -42.4807 H         1 UNK         0.2998 
    101 H101       25.4949  -32.2959  -42.2535 H         1 UNK         0.0822 
    102 H102       23.2125  -32.7929  -43.1248 H         1 UNK         0.0787 
    103 H103       22.7159  -31.1329  -42.8402 H         1 UNK         0.0787 
    104 H104       23.9565  -31.4905  -44.0379 H         1 UNK         0.0787 
    105 H105       23.7664  -30.2268  -40.0202 H         1 UNK         0.3055 
    106 H106       22.8408  -30.4449  -38.0361 H         1 UNK         0.1106 
    107 H107       25.0289  -31.5214  -37.4401 H         1 UNK         0.0828 
    108 H108       23.7025  -32.0987  -36.4476 H         1 UNK         0.0828 
    109 H109       24.3211  -33.1075  -37.7444 H         1 UNK         0.0828 
    110 H110       21.5070  -31.7953  -40.4507 H         1 UNK         0.2931 
    111 H111       19.8349  -33.8435  -39.3074 H         1 UNK         0.0412 
    112 H112       16.6571  -32.2531  -38.7886 H         1 UNK         0.3472 
    113 H113       17.3688  -33.7371  -39.3647 H         1 UNK         0.3472 
    114 H114       20.4460  -33.9815  -41.6591 H         1 UNK         0.0970 
    115 H115       18.7221  -33.9168  -41.4736 H         1 UNK         0.0970 
    116 H116       19.3809  -33.5650  -44.3108 H         1 UNK         0.0612 
    117 H117       17.8235  -33.2190  -43.5953 H         1 UNK         0.0612 
@<TRIPOS>BOND
     1    1    2 1    
     2    1   62 1    
     3    1   63 1    
     4    1   64 1    
     5    2    3 2    
     6    2    4 am   BACKBONE|DICT|INTERRES
     7    4    5 1    
     8    4   65 1    
     9    5    6 1    
    10    5   25 1    
    11    5   66 1    
    12    6    7 1    
    13    6   67 1    
    14    6   68 1    
    15    7    8 1    
    16    8    9 1    
    17    8   69 1    
    18    8   70 1    
    19    9   10 ar   
    20    9   14 ar   
    21   10   11 ar   
    22   10   71 1    
    23   11   12 ar   
    24   11   61 1    
    25   12   13 ar   
    26   12   72 1    
    27   13   14 ar   
    28   13   15 1    
    29   14   73 1    
    30   15   16 1    
    31   15   74 1    
    32   15   75 1    
    33   16   17 1    
    34   17   18 1    
    35   17   76 1    
    36   17   77 1    
    37   18   19 1    
    38   18   27 1    
    39   18   78 1    
    40   19   20 am   BACKBONE|DICT|INTERRES
    41   19   79 1    
    42   20   21 2    
    43   20   22 1    
    44   22   23 1    
    45   22   24 1    
    46   22   80 1    
    47   23   81 1    
    48   23   82 1    
    49   23   83 1    
    50   24   25 am   BACKBONE|DICT|INTERRES
    51   24   84 1    
    52   25   26 2    
    53   27   28 2    
    54   27   29 am   BACKBONE|DICT|INTERRES
    55   29   30 1    
    56   29   85 1    
    57   30   31 1    
    58   30   32 1    
    59   30   86 1    
    60   31   87 1    
    61   31   88 1    
    62   31   89 1    
    63   32   33 2    
    64   32   34 am   BACKBONE|DICT|INTERRES
    65   34   35 1    
    66   34   90 1    
    67   35   36 1    
    68   35   37 1    
    69   35   91 1    
    70   36   92 1    
    71   36   93 1    
    72   36   94 1    
    73   37   38 2    
    74   37   39 am   BACKBONE|DICT|INTERRES
    75   39   40 1    
    76   39   95 1    
    77   40   41 1    
    78   40   42 1    
    79   40   96 1    
    80   41   97 1    
    81   41   98 1    
    82   41   99 1    
    83   42   43 2    
    84   42   44 am   BACKBONE|DICT|INTERRES
    85   44   45 1    
    86   44  100 1    
    87   45   46 1    
    88   45   47 1    
    89   45  101 1    
    90   46  102 1    
    91   46  103 1    
    92   46  104 1    
    93   47   48 2    
    94   47   49 am   BACKBONE|DICT|INTERRES
    95   49   50 1    
    96   49  105 1    
    97   50   51 1    
    98   50   52 1    
    99   50  106 1    
   100   51  107 1    
   101   51  108 1    
   102   51  109 1    
   103   52   53 2    
   104   52   54 am   BACKBONE|DICT|INTERRES
   105   54   55 1    
   106   54  110 1    
   107   55   56 1    
   108   55   59 1    
   109   55  111 1    
   110   56   57 am   BACKBONE|DICT|INTERRES
   111   56   58 2    
   112   57  112 1    
   113   57  113 1    
   114   59   60 1    
   115   59  114 1    
   116   59  115 1    
   117   60   61 1    
   118   61  116 1    
   119   61  117 1    
@<TRIPOS>SUBSTRUCTURE
     1 UNK         1 GROUP             0       ****    0 ROOT    
