@<TRIPOS>MOLECULE
3R8
117   119    1
SMALL
USER_CHARGES


@<TRIPOS>ATOM
      1 CA         17.1647  -23.9247  -49.1103 C.3       0 UNK        -0.2013 
      2 C          18.1948  -24.6390  -48.2479 C.2       0 UNK         0.4866 
      3 O          19.3750  -24.2892  -48.2873 O.2       0 UNK        -0.5176 
      4 N          17.7605  -25.6430  -47.4768 N.am      1 UNK        -0.4884 
      5 CA         18.6011  -26.4078  -46.5502 C.3       1 UNK         0.0853 
      6 C6         17.8755  -27.6679  -46.0194 C.3       10 UNK        -0.0849 
      7 S7         17.4772  -28.8979  -47.3011 S.3       10 UNK        -0.2776 
      8 C8         16.0570  -29.7443  -46.5292 C.3       10 UNK         0.0316 
      9 C9         16.4049  -30.3387  -45.1684 C.ar      10 UNK        -0.0863 
     10 C10        17.0306  -31.5854  -45.0801 C.ar      10 UNK        -0.1009 
     11 C11        17.3307  -32.1427  -43.8328 C.ar      10 UNK        -0.0712 
     12 C12        17.0245  -31.4300  -42.6679 C.ar      10 UNK        -0.0894 
     13 C13        16.4027  -30.1794  -42.7403 C.ar      10 UNK        -0.0745 
     14 C14        16.0809  -29.6502  -43.9947 C.ar      10 UNK        -0.0972 
     15 C15        16.0253  -29.4305  -41.4658 C.3       10 UNK         0.0209 
     16 S16        16.6337  -27.7087  -41.4543 S.3       10 UNK        -0.2568 
     17 C17        17.7949  -27.6788  -40.0446 C.3       10 UNK        -0.0983 
     18 CA         19.2767  -27.7776  -40.4835 C.3       3 UNK         0.0876 
     19 N          19.6649  -26.6952  -41.3889 N.am      3 UNK        -0.4424 
     20 C          20.1497  -26.8827  -42.6168 C.2       2 UNK         0.4918 
     21 O          20.2875  -27.9896  -43.1422 O.2       2 UNK        -0.4875 
     22 CA         20.5600  -25.6291  -43.4052 C.3       2 UNK         0.0481 
     23 CB         22.0724  -25.3882  -43.2828 C.3       2 UNK        -0.1831 
     24 N          20.2161  -25.8611  -44.8066 N.am      2 UNK        -0.4498 
     25 C          19.0250  -25.5593  -45.3353 C.2       1 UNK         0.5027 
     26 O          18.2374  -24.7440  -44.8469 O.2       1 UNK        -0.4969 
     27 C          20.2112  -27.6947  -39.2681 C.2       3 UNK         0.5005 
     28 O          20.4905  -26.5860  -38.8000 O.2       3 UNK        -0.5279 
     29 N          20.6909  -28.8516  -38.7900 N.am      4 UNK        -0.4463 
     30 CA         21.6888  -29.0551  -37.7267 C.3       4 UNK         0.0283 
     31 CB         21.2751  -28.4072  -36.3899 C.3       4 UNK        -0.1875 
     32 C          23.1021  -28.6268  -38.1613 C.2       4 UNK         0.4949 
     33 O          24.0249  -29.4427  -38.1263 O.2       4 UNK        -0.5039 
     34 N          23.2328  -27.3733  -38.6084 N.am      5 UNK        -0.4663 
     35 CA         24.4105  -26.8321  -39.2842 C.3       5 UNK         0.0242 
     36 CB         24.2513  -25.3073  -39.4013 C.3       5 UNK        -0.1982 
     37 C          24.6059  -27.4655  -40.6740 C.2       5 UNK         0.5017 
     38 O          23.6449  -27.9655  -41.2627 O.2       5 UNK        -0.5012 
     39 N          25.8505  -27.4075  -41.1700 N.am      6 UNK        -0.4439 
     40 CA         26.3184  -27.9777  -42.4417 C.3       6 UNK         0.0297 
     41 CB         25.6441  -27.2849  -43.6459 C.3       6 UNK        -0.2006 
     42 C          26.1925  -29.5148  -42.4862 C.2       6 UNK         0.4892 
     43 O          25.7970  -30.0682  -43.5122 O.2       6 UNK        -0.5089 
     44 N          26.5529  -30.1631  -41.3667 N.am      7 UNK        -0.4243 
     45 CA         26.5131  -31.6096  -41.1205 C.3       7 UNK         0.0196 
     46 CB         27.4937  -32.3616  -42.0472 C.3       7 UNK        -0.2007 
     47 C          25.0787  -32.1652  -41.1792 C.2       7 UNK         0.5020 
     48 O          24.7600  -32.9821  -42.0451 O.2       7 UNK        -0.5147 
     49 N          24.2385  -31.6962  -40.2465 N.am      8 UNK        -0.4734 
     50 CA         22.8379  -32.0688  -40.0030 C.3       8 UNK         0.0238 
     51 CB         22.6698  -33.5810  -39.7515 C.3       8 UNK        -0.1912 
     52 C          21.8423  -31.5653  -41.0597 C.2       8 UNK         0.5038 
     53 O          20.8143  -31.0035  -40.6766 O.2       8 UNK        -0.5046 
     54 N          22.1499  -31.7904  -42.3396 N.am      9 UNK        -0.4200 
     55 CA         21.3135  -31.4603  -43.4962 C.3       9 UNK         0.0839 
     56 C          22.2004  -30.7632  -44.5544 C.2       9 UNK         0.5513 
     57 N          22.0491  -29.4616  -44.7425 N.am      9 UNK        -0.7519 
     58 O          23.0027  -31.4047  -45.2291 O.2       9 UNK        -0.4960 
     59 C59        20.6217  -32.7201  -44.0876 C.3       10 UNK        -0.0876 
     60 S60        19.5372  -33.5801  -42.8968 S.3       10 UNK        -0.2414 
     61 C61        17.9283  -33.5412  -43.7449 C.3       10 UNK         0.0169 
     62 H62        17.1224  -22.8683  -48.8461 H         1 UNK         0.0903 
     63 H63        17.4373  -24.0024  -50.1625 H         1 UNK         0.0903 
     64 H64        16.1668  -24.3452  -48.9869 H         1 UNK         0.0903 
     65 H65        16.7801  -25.8854  -47.4772 H         1 UNK         0.3096 
     66 H66        19.4996  -26.7186  -47.0887 H         1 UNK         0.1121 
     67 H67        16.9555  -27.3732  -45.5110 H         1 UNK         0.0849 
     68 H68        18.4832  -28.1819  -45.2706 H         1 UNK         0.0849 
     69 H69        15.2258  -29.0431  -46.4379 H         1 UNK         0.0865 
     70 H70        15.7108  -30.5345  -47.1970 H         1 UNK         0.0865 
     71 H71        17.2661  -32.1284  -45.9854 H         1 UNK         0.1346 
     72 H72        17.2566  -31.8632  -41.7045 H         1 UNK         0.1412 
     73 H73        15.5800  -28.6936  -44.0532 H         1 UNK         0.1426 
     74 H74        16.3840  -29.9662  -40.5863 H         1 UNK         0.0716 
     75 H75        14.9378  -29.4124  -41.3850 H         1 UNK         0.0716 
     76 H76        17.5466  -28.4790  -39.3454 H         1 UNK         0.0695 
     77 H77        17.6220  -26.7471  -39.5022 H         1 UNK         0.0695 
     78 H78        19.4209  -28.7481  -40.9638 H         1 UNK         0.0983 
     79 H79        19.6403  -25.7674  -40.9901 H         1 UNK         0.3095 
     80 H80        20.0300  -24.7570  -43.0161 H         1 UNK         0.0454 
     81 H81        22.6453  -26.2485  -43.6290 H         1 UNK         0.0851 
     82 H82        22.3559  -25.2091  -42.2454 H         1 UNK         0.0851 
     83 H83        22.3859  -24.5196  -43.8618 H         1 UNK         0.0851 
     84 H84        20.7703  -26.5694  -45.2664 H         1 UNK         0.2976 
     85 H85        20.4780  -29.6897  -39.3285 H         1 UNK         0.3116 
     86 H86        21.7178  -30.1305  -37.5523 H         1 UNK         0.0646 
     87 H87        20.2822  -28.7342  -36.0818 H         1 UNK         0.0847 
     88 H88        21.9689  -28.6874  -35.5964 H         1 UNK         0.0847 
     89 H89        21.2692  -27.3182  -36.4374 H         1 UNK         0.0847 
     90 H90        22.3828  -26.8173  -38.6509 H         1 UNK         0.3040 
     91 H91        25.2868  -27.0554  -38.6716 H         1 UNK         0.1015 
     92 H92        23.3668  -25.0387  -39.9802 H         1 UNK         0.0786 
     93 H93        25.1135  -24.8549  -39.8930 H         1 UNK         0.0786 
     94 H94        24.1602  -24.8428  -38.4192 H         1 UNK         0.0786 
     95 H95        26.5625  -26.9550  -40.6122 H         1 UNK         0.3172 
     96 H96        27.3859  -27.7591  -42.4972 H         1 UNK         0.0595 
     97 H97        24.5940  -27.5641  -43.7330 H         1 UNK         0.0839 
     98 H98        25.7012  -26.1992  -43.5693 H         1 UNK         0.0839 
     99 H99        26.1292  -27.5714  -44.5797 H         1 UNK         0.0839 
    100 H100       26.8524  -29.5991  -40.5838 H         1 UNK         0.2998 
    101 H101       26.8606  -31.7593  -40.0969 H         1 UNK         0.0822 
    102 H102       27.5264  -33.4226  -41.7965 H         1 UNK         0.0787 
    103 H103       27.2056  -32.2880  -43.0963 H         1 UNK         0.0787 
    104 H104       28.5077  -31.9740  -41.9501 H         1 UNK         0.0787 
    105 H105       24.5824  -30.9750  -39.6213 H         1 UNK         0.3055 
    106 H106       22.5713  -31.5734  -39.0716 H         1 UNK         0.1106 
    107 H107       23.3247  -33.9265  -38.9518 H         1 UNK         0.0828 
    108 H108       21.6456  -33.8104  -39.4541 H         1 UNK         0.0828 
    109 H109       22.8827  -34.1738  -40.6414 H         1 UNK         0.0828 
    110 H110       23.0455  -32.2245  -42.5452 H         1 UNK         0.2931 
    111 H111       20.5304  -30.7606  -43.1956 H         1 UNK         0.0412 
    112 H112       22.6205  -28.9950  -45.4270 H         1 UNK         0.3472 
    113 H113       21.4014  -28.9348  -44.1583 H         1 UNK         0.3472 
    114 H114       20.0413  -32.4440  -44.9696 H         1 UNK         0.0970 
    115 H115       21.3675  -33.4386  -44.4330 H         1 UNK         0.0970 
    116 H116       18.0384  -33.9858  -44.7353 H         1 UNK         0.0612 
    117 H117       17.2344  -34.1818  -43.1992 H         1 UNK         0.0612 
@<TRIPOS>BOND
     1    1    2 1    
     2    1   62 1    
     3    1   63 1    
     4    1   64 1    
     5    2    3 2    
     6    2    4 am   BACKBONE|DICT|INTERRES
     7    4    5 1    
     8    4   65 1    
     9    5    6 1    
    10    5   25 1    
    11    5   66 1    
    12    6    7 1    
    13    6   67 1    
    14    6   68 1    
    15    7    8 1    
    16    8    9 1    
    17    8   69 1    
    18    8   70 1    
    19    9   10 ar   
    20    9   14 ar   
    21   10   11 ar   
    22   10   71 1    
    23   11   12 ar   
    24   11   61 1    
    25   12   13 ar   
    26   12   72 1    
    27   13   14 ar   
    28   13   15 1    
    29   14   73 1    
    30   15   16 1    
    31   15   74 1    
    32   15   75 1    
    33   16   17 1    
    34   17   18 1    
    35   17   76 1    
    36   17   77 1    
    37   18   19 1    
    38   18   27 1    
    39   18   78 1    
    40   19   20 am   BACKBONE|DICT|INTERRES
    41   19   79 1    
    42   20   21 2    
    43   20   22 1    
    44   22   23 1    
    45   22   24 1    
    46   22   80 1    
    47   23   81 1    
    48   23   82 1    
    49   23   83 1    
    50   24   25 am   BACKBONE|DICT|INTERRES
    51   24   84 1    
    52   25   26 2    
    53   27   28 2    
    54   27   29 am   BACKBONE|DICT|INTERRES
    55   29   30 1    
    56   29   85 1    
    57   30   31 1    
    58   30   32 1    
    59   30   86 1    
    60   31   87 1    
    61   31   88 1    
    62   31   89 1    
    63   32   33 2    
    64   32   34 am   BACKBONE|DICT|INTERRES
    65   34   35 1    
    66   34   90 1    
    67   35   36 1    
    68   35   37 1    
    69   35   91 1    
    70   36   92 1    
    71   36   93 1    
    72   36   94 1    
    73   37   38 2    
    74   37   39 am   BACKBONE|DICT|INTERRES
    75   39   40 1    
    76   39   95 1    
    77   40   41 1    
    78   40   42 1    
    79   40   96 1    
    80   41   97 1    
    81   41   98 1    
    82   41   99 1    
    83   42   43 2    
    84   42   44 am   BACKBONE|DICT|INTERRES
    85   44   45 1    
    86   44  100 1    
    87   45   46 1    
    88   45   47 1    
    89   45  101 1    
    90   46  102 1    
    91   46  103 1    
    92   46  104 1    
    93   47   48 2    
    94   47   49 am   BACKBONE|DICT|INTERRES
    95   49   50 1    
    96   49  105 1    
    97   50   51 1    
    98   50   52 1    
    99   50  106 1    
   100   51  107 1    
   101   51  108 1    
   102   51  109 1    
   103   52   53 2    
   104   52   54 am   BACKBONE|DICT|INTERRES
   105   54   55 1    
   106   54  110 1    
   107   55   56 1    
   108   55   59 1    
   109   55  111 1    
   110   56   57 am   BACKBONE|DICT|INTERRES
   111   56   58 2    
   112   57  112 1    
   113   57  113 1    
   114   59   60 1    
   115   59  114 1    
   116   59  115 1    
   117   60   61 1    
   118   61  116 1    
   119   61  117 1    
@<TRIPOS>SUBSTRUCTURE
     1 UNK         1 GROUP             0       ****    0 ROOT    
