@<TRIPOS>MOLECULE
3R8
117   119    1
SMALL
USER_CHARGES


@<TRIPOS>ATOM
      1 CA         14.9840  -24.3775  -46.2637 C.3       0 UNK        -0.2013 
      2 C          15.9271  -25.4337  -45.7084 C.2       0 UNK         0.4866 
      3 O          17.0540  -25.1118  -45.3303 O.2       0 UNK        -0.5176 
      4 N          15.4751  -26.6926  -45.6449 N.am      1 UNK        -0.4884 
      5 CA         16.2310  -27.8534  -45.1544 C.3       1 UNK         0.0853 
      6 C6         15.6979  -29.1733  -45.7660 C.3       10 UNK        -0.0849 
      7 S7         16.1541  -29.2792  -47.5298 S.3       10 UNK        -0.2776 
      8 C8         17.5400  -30.4663  -47.4972 C.3       10 UNK         0.0316 
      9 C9         18.6272  -30.0951  -46.4933 C.ar      10 UNK        -0.0863 
     10 C10        18.7766  -30.8403  -45.3192 C.ar      10 UNK        -0.1009 
     11 C11        19.7873  -30.5342  -44.4043 C.ar      10 UNK        -0.0712 
     12 C12        20.6633  -29.4814  -44.6777 C.ar      10 UNK        -0.0894 
     13 C13        20.5010  -28.7003  -45.8247 C.ar      10 UNK        -0.0745 
     14 C14        19.4876  -29.0188  -46.7363 C.ar      10 UNK        -0.0972 
     15 C15        21.4233  -27.5171  -46.0799 C.3       10 UNK         0.0209 
     16 S16        20.8426  -26.0130  -45.2277 S.3       10 UNK        -0.2568 
     17 C17        21.6746  -26.1509  -43.6083 C.3       10 UNK        -0.0983 
     18 CA         20.8495  -25.5518  -42.4415 C.3       3 UNK         0.0876 
     19 N          19.5615  -26.2343  -42.2981 N.am      3 UNK        -0.4424 
     20 C          18.5275  -25.8063  -41.5629 C.2       2 UNK         0.4918 
     21 O          18.5300  -24.7621  -40.9084 O.2       2 UNK        -0.4875 
     22 CA         17.2600  -26.6690  -41.6460 C.3       2 UNK         0.0481 
     23 CB         16.0527  -26.0643  -40.9031 C.3       2 UNK        -0.1831 
     24 N          16.9465  -26.8544  -43.0577 N.am      2 UNK        -0.4498 
     25 C          16.2929  -27.8770  -43.6129 C.2       1 UNK         0.5027 
     26 O          15.7580  -28.7834  -42.9719 O.2       1 UNK        -0.4969 
     27 C          21.6667  -25.5745  -41.1300 C.2       3 UNK         0.5005 
     28 O          21.3738  -26.3526  -40.2179 O.2       3 UNK        -0.5279 
     29 N          22.7094  -24.7350  -41.0718 N.am      4 UNK        -0.4463 
     30 CA         23.6482  -24.6541  -39.9472 C.3       4 UNK         0.0283 
     31 CB         24.4291  -23.3327  -40.0406 C.3       4 UNK        -0.1875 
     32 C          24.6234  -25.8451  -39.8593 C.2       4 UNK         0.4949 
     33 O          25.2191  -26.0507  -38.8015 O.2       4 UNK        -0.5039 
     34 N          24.7779  -26.6024  -40.9513 N.am      5 UNK        -0.4663 
     35 CA         25.6522  -27.7666  -41.0707 C.3       5 UNK         0.0242 
     36 CB         27.1014  -27.2966  -41.3197 C.3       5 UNK        -0.1982 
     37 C          25.1407  -28.6737  -42.2020 C.2       5 UNK         0.5017 
     38 O          24.1466  -28.3341  -42.8482 O.2       5 UNK        -0.5012 
     39 N          25.8659  -29.7791  -42.4274 N.am      6 UNK        -0.4439 
     40 CA         25.6607  -30.8429  -43.4201 C.3       6 UNK         0.0297 
     41 CB         25.4167  -30.2928  -44.8407 C.3       6 UNK        -0.2006 
     42 C          24.5640  -31.8387  -43.0111 C.2       6 UNK         0.4892 
     43 O          23.5077  -31.4392  -42.5205 O.2       6 UNK        -0.5089 
     44 N          24.8425  -33.1295  -43.2492 N.am      7 UNK        -0.4243 
     45 CA         23.9943  -34.2884  -42.9455 C.3       7 UNK         0.0196 
     46 CB         22.8073  -34.3574  -43.9347 C.3       7 UNK        -0.2007 
     47 C          23.5933  -34.3289  -41.4560 C.2       7 UNK         0.5020 
     48 O          24.4750  -34.2804  -40.5969 O.2       7 UNK        -0.5147 
     49 N          22.2880  -34.4113  -41.1727 N.am      8 UNK        -0.4734 
     50 CA         21.7242  -34.3724  -39.8201 C.3       8 UNK         0.0238 
     51 CB         20.3880  -35.1356  -39.8258 C.3       8 UNK        -0.1912 
     52 C          21.5232  -32.9418  -39.2811 C.2       8 UNK         0.5038 
     53 O          21.1852  -32.7956  -38.1051 O.2       8 UNK        -0.5046 
     54 N          21.6926  -31.9261  -40.1363 N.am      9 UNK        -0.4200 
     55 CA         21.5027  -30.5053  -39.8155 C.3       9 UNK         0.0839 
     56 C          22.7855  -29.8660  -39.2070 C.2       9 UNK         0.5513 
     57 N          22.7710  -28.5714  -38.9247 N.am      9 UNK        -0.7519 
     58 O          23.7957  -30.5236  -38.9632 O.2       9 UNK        -0.4960 
     59 C59        20.9528  -29.7243  -41.0402 C.3       10 UNK        -0.0876 
     60 S60        19.3771  -30.4083  -41.6669 S.3       10 UNK        -0.2414 
     61 C61        19.9321  -31.3452  -43.1259 C.3       10 UNK         0.0169 
     62 H62        14.0252  -24.8017  -46.5613 H         1 UNK         0.0903 
     63 H63        14.7976  -23.6097  -45.5133 H         1 UNK         0.0903 
     64 H64        15.4290  -23.9003  -47.1364 H         1 UNK         0.0903 
     65 H65        14.5350  -26.8924  -45.9564 H         1 UNK         0.3096 
     66 H66        17.2687  -27.7404  -45.4775 H         1 UNK         0.1121 
     67 H67        16.0904  -30.0476  -45.2448 H         1 UNK         0.0849 
     68 H68        14.6126  -29.2359  -45.6702 H         1 UNK         0.0849 
     69 H69        17.1454  -31.4612  -47.2846 H         1 UNK         0.0865 
     70 H70        17.9774  -30.5246  -48.4949 H         1 UNK         0.0865 
     71 H71        18.1054  -31.6640  -45.1169 H         1 UNK         0.1346 
     72 H72        21.4665  -29.2639  -43.9903 H         1 UNK         0.1412 
     73 H73        19.3631  -28.4270  -47.6331 H         1 UNK         0.1426 
     74 H74        21.4744  -27.3119  -47.1503 H         1 UNK         0.0716 
     75 H75        22.4425  -27.7540  -45.7691 H         1 UNK         0.0716 
     76 H76        22.6412  -25.6534  -43.7041 H         1 UNK         0.0695 
     77 H77        21.8948  -27.1961  -43.4003 H         1 UNK         0.0695 
     78 H78        20.6377  -24.5049  -42.6703 H         1 UNK         0.0983 
     79 H79        19.4638  -27.0991  -42.8087 H         1 UNK         0.3095 
     80 H80        17.4989  -27.6371  -41.2008 H         1 UNK         0.0454 
     81 H81        16.2789  -25.9162  -39.8465 H         1 UNK         0.0851 
     82 H82        15.7700  -25.0960  -41.3176 H         1 UNK         0.0851 
     83 H83        15.1831  -26.7191  -40.9582 H         1 UNK         0.0851 
     84 H84        17.2932  -26.1331  -43.6877 H         1 UNK         0.2976 
     85 H85        22.8919  -24.1236  -41.8555 H         1 UNK         0.3116 
     86 H86        23.0700  -24.6408  -39.0207 H         1 UNK         0.0646 
     87 H87        25.1118  -23.2225  -39.1968 H         1 UNK         0.0847 
     88 H88        23.7599  -22.4723  -40.0256 H         1 UNK         0.0847 
     89 H89        25.0277  -23.2796  -40.9509 H         1 UNK         0.0847 
     90 H90        24.1963  -26.4376  -41.7626 H         1 UNK         0.3040 
     91 H91        25.6062  -28.3419  -40.1431 H         1 UNK         0.1015 
     92 H92        27.4487  -26.6371  -40.5242 H         1 UNK         0.0786 
     93 H93        27.1889  -26.7545  -42.2622 H         1 UNK         0.0786 
     94 H94        27.7969  -28.1353  -41.3581 H         1 UNK         0.0786 
     95 H95        26.6425  -29.9452  -41.8028 H         1 UNK         0.3172 
     96 H96        26.6074  -31.3853  -43.4443 H         1 UNK         0.0595 
     97 H97        26.1709  -29.5574  -45.1204 H         1 UNK         0.0839 
     98 H98        24.4363  -29.8242  -44.9345 H         1 UNK         0.0839 
     99 H99        25.4555  -31.0954  -45.5780 H         1 UNK         0.0839 
    100 H100       25.7499  -33.3522  -43.6342 H         1 UNK         0.2998 
    101 H101       24.6104  -35.1735  -43.1111 H         1 UNK         0.0822 
    102 H102       23.1634  -34.3849  -44.9646 H         1 UNK         0.0787 
    103 H103       22.2136  -35.2601  -43.7845 H         1 UNK         0.0787 
    104 H104       22.1439  -33.4978  -43.8458 H         1 UNK         0.0787 
    105 H105       21.6313  -34.4479  -41.9391 H         1 UNK         0.3055 
    106 H106       22.4047  -34.8808  -39.1331 H         1 UNK         0.1106 
    107 H107       19.6554  -34.6629  -40.4812 H         1 UNK         0.0828 
    108 H108       20.5201  -36.1664  -40.1551 H         1 UNK         0.0828 
    109 H109       19.9535  -35.1717  -38.8257 H         1 UNK         0.0828 
    110 H110       22.0842  -32.1119  -41.0512 H         1 UNK         0.2931 
    111 H111       20.7456  -30.4391  -39.0318 H         1 UNK         0.0412 
    112 H112       23.5936  -28.1587  -38.5146 H         1 UNK         0.3472 
    113 H113       22.0021  -27.9687  -39.1979 H         1 UNK         0.3472 
    114 H114       21.7010  -29.6790  -41.8308 H         1 UNK         0.0970 
    115 H115       20.7446  -28.6926  -40.7675 H         1 UNK         0.0970 
    116 H116       20.9665  -31.6591  -43.0014 H         1 UNK         0.0612 
    117 H117       19.3441  -32.2619  -43.1887 H         1 UNK         0.0612 
@<TRIPOS>BOND
     1    1    2 1    
     2    1   62 1    
     3    1   63 1    
     4    1   64 1    
     5    2    3 2    
     6    2    4 am   BACKBONE|DICT|INTERRES
     7    4    5 1    
     8    4   65 1    
     9    5    6 1    
    10    5   25 1    
    11    5   66 1    
    12    6    7 1    
    13    6   67 1    
    14    6   68 1    
    15    7    8 1    
    16    8    9 1    
    17    8   69 1    
    18    8   70 1    
    19    9   10 ar   
    20    9   14 ar   
    21   10   11 ar   
    22   10   71 1    
    23   11   12 ar   
    24   11   61 1    
    25   12   13 ar   
    26   12   72 1    
    27   13   14 ar   
    28   13   15 1    
    29   14   73 1    
    30   15   16 1    
    31   15   74 1    
    32   15   75 1    
    33   16   17 1    
    34   17   18 1    
    35   17   76 1    
    36   17   77 1    
    37   18   19 1    
    38   18   27 1    
    39   18   78 1    
    40   19   20 am   BACKBONE|DICT|INTERRES
    41   19   79 1    
    42   20   21 2    
    43   20   22 1    
    44   22   23 1    
    45   22   24 1    
    46   22   80 1    
    47   23   81 1    
    48   23   82 1    
    49   23   83 1    
    50   24   25 am   BACKBONE|DICT|INTERRES
    51   24   84 1    
    52   25   26 2    
    53   27   28 2    
    54   27   29 am   BACKBONE|DICT|INTERRES
    55   29   30 1    
    56   29   85 1    
    57   30   31 1    
    58   30   32 1    
    59   30   86 1    
    60   31   87 1    
    61   31   88 1    
    62   31   89 1    
    63   32   33 2    
    64   32   34 am   BACKBONE|DICT|INTERRES
    65   34   35 1    
    66   34   90 1    
    67   35   36 1    
    68   35   37 1    
    69   35   91 1    
    70   36   92 1    
    71   36   93 1    
    72   36   94 1    
    73   37   38 2    
    74   37   39 am   BACKBONE|DICT|INTERRES
    75   39   40 1    
    76   39   95 1    
    77   40   41 1    
    78   40   42 1    
    79   40   96 1    
    80   41   97 1    
    81   41   98 1    
    82   41   99 1    
    83   42   43 2    
    84   42   44 am   BACKBONE|DICT|INTERRES
    85   44   45 1    
    86   44  100 1    
    87   45   46 1    
    88   45   47 1    
    89   45  101 1    
    90   46  102 1    
    91   46  103 1    
    92   46  104 1    
    93   47   48 2    
    94   47   49 am   BACKBONE|DICT|INTERRES
    95   49   50 1    
    96   49  105 1    
    97   50   51 1    
    98   50   52 1    
    99   50  106 1    
   100   51  107 1    
   101   51  108 1    
   102   51  109 1    
   103   52   53 2    
   104   52   54 am   BACKBONE|DICT|INTERRES
   105   54   55 1    
   106   54  110 1    
   107   55   56 1    
   108   55   59 1    
   109   55  111 1    
   110   56   57 am   BACKBONE|DICT|INTERRES
   111   56   58 2    
   112   57  112 1    
   113   57  113 1    
   114   59   60 1    
   115   59  114 1    
   116   59  115 1    
   117   60   61 1    
   118   61  116 1    
   119   61  117 1    
@<TRIPOS>SUBSTRUCTURE
     1 UNK         1 GROUP             0       ****    0 ROOT    
