@<TRIPOS>MOLECULE
3R8
117   119    1
SMALL
USER_CHARGES


@<TRIPOS>ATOM
      1 CA         14.8759  -24.0945  -40.9278 C.3       0 UNK        -0.2013 
      2 C          15.1127  -24.4507  -42.3878 C.2       0 UNK         0.4866 
      3 O          14.1558  -24.5661  -43.1545 O.2       0 UNK        -0.5176 
      4 N          16.3782  -24.6208  -42.7787 N.am      1 UNK        -0.4884 
      5 CA         16.8114  -24.9672  -44.1311 C.3       1 UNK         0.0853 
      6 C6         16.6108  -26.4709  -44.4754 C.3       10 UNK        -0.0849 
      7 S7         17.2647  -27.6420  -43.2288 S.3       10 UNK        -0.2776 
      8 C8         16.4836  -29.2068  -43.7537 C.3       10 UNK         0.0316 
      9 C9         17.4873  -30.1204  -44.4422 C.ar      10 UNK        -0.0863 
     10 C10        17.9420  -31.2822  -43.8070 C.ar      10 UNK        -0.1009 
     11 C11        18.9031  -32.0941  -44.4184 C.ar      10 UNK        -0.0712 
     12 C12        19.4272  -31.7237  -45.6594 C.ar      10 UNK        -0.0894 
     13 C13        18.9913  -30.5588  -46.2958 C.ar      10 UNK        -0.0745 
     14 C14        17.9891  -29.7851  -45.7029 C.ar      10 UNK        -0.0972 
     15 C15        19.6678  -30.0939  -47.5786 C.3       10 UNK         0.0209 
     16 S16        20.4627  -28.4534  -47.4129 S.3       10 UNK        -0.2568 
     17 C17        21.1785  -28.4902  -45.7251 C.3       10 UNK        -0.0983 
     18 CA         21.7471  -27.1277  -45.2550 C.3       3 UNK         0.0876 
     19 N          20.8222  -26.0250  -45.5303 N.am      3 UNK        -0.4424 
     20 C          21.1521  -24.7312  -45.6152 C.2       2 UNK         0.4918 
     21 O          22.2952  -24.3049  -45.4513 O.2       2 UNK        -0.4875 
     22 CA         20.0085  -23.7440  -45.9167 C.3       2 UNK         0.0481 
     23 CB         20.0194  -23.3584  -47.4045 C.3       2 UNK        -0.1831 
     24 N          18.6720  -24.2386  -45.5555 N.am      2 UNK        -0.4498 
     25 C          18.2666  -24.5018  -44.3044 C.2       1 UNK         0.5027 
     26 O          18.9978  -24.3956  -43.3160 O.2       1 UNK        -0.4969 
     27 C          22.1537  -27.2100  -43.7646 C.2       3 UNK         0.5005 
     28 O          23.0185  -28.0211  -43.4326 O.2       3 UNK        -0.5279 
     29 N          21.5467  -26.3879  -42.8890 N.am      4 UNK        -0.4463 
     30 CA         21.7326  -26.3702  -41.4300 C.3       4 UNK         0.0283 
     31 CB         20.7555  -25.3640  -40.8023 C.3       4 UNK        -0.1875 
     32 C          23.1694  -26.1182  -40.9277 C.2       4 UNK         0.4949 
     33 O          23.4322  -26.3256  -39.7434 O.2       4 UNK        -0.5039 
     34 N          24.0916  -25.7371  -41.8223 N.am      5 UNK        -0.4663 
     35 CA         25.5395  -25.7720  -41.5884 C.3       5 UNK         0.0242 
     36 CB         26.2567  -25.1292  -42.7861 C.3       5 UNK        -0.1982 
     37 C          26.0798  -27.1970  -41.3354 C.2       5 UNK         0.5017 
     38 O          27.1155  -27.3373  -40.6844 O.2       5 UNK        -0.5012 
     39 N          25.3638  -28.2180  -41.8270 N.am      6 UNK        -0.4439 
     40 CA         25.6069  -29.6370  -41.5879 C.3       6 UNK         0.0297 
     41 CB         26.2121  -30.2695  -42.8551 C.3       6 UNK        -0.2006 
     42 C          24.2871  -30.2990  -41.1555 C.2       6 UNK         0.4892 
     43 O          23.8563  -31.2778  -41.7655 O.2       6 UNK        -0.5089 
     44 N          23.6681  -29.7518  -40.0969 N.am      7 UNK        -0.4243 
     45 CA         22.3755  -30.1740  -39.5331 C.3       7 UNK         0.0196 
     46 CB         21.9458  -29.1678  -38.4506 C.3       7 UNK        -0.2007 
     47 C          22.3258  -31.6054  -38.9598 C.2       7 UNK         0.5020 
     48 O          21.2380  -32.0746  -38.6228 O.2       7 UNK        -0.5147 
     49 N          23.4788  -32.2820  -38.8571 N.am      8 UNK        -0.4734 
     50 CA         23.6405  -33.6539  -38.3589 C.3       8 UNK         0.0238 
     51 CB         25.1360  -34.0112  -38.3633 C.3       8 UNK        -0.1912 
     52 C          22.8300  -34.7251  -39.1167 C.2       8 UNK         0.5038 
     53 O          22.5965  -35.7976  -38.5573 O.2       8 UNK        -0.5046 
     54 N          22.4037  -34.4219  -40.3504 N.am      9 UNK        -0.4200 
     55 CA         21.4494  -35.2272  -41.1256 C.3       9 UNK         0.0839 
     56 C          19.9929  -35.2386  -40.5707 C.2       9 UNK         0.5513 
     57 N          19.6160  -34.3550  -39.6529 N.am      9 UNK        -0.7519 
     58 O          19.1923  -36.0759  -40.9788 O.2       9 UNK        -0.4960 
     59 C59        21.4952  -34.8728  -42.6341 C.3       10 UNK        -0.0876 
     60 S60        21.0427  -33.1419  -43.0145 S.3       10 UNK        -0.2414 
     61 C61        19.3915  -33.3677  -43.7457 C.3       10 UNK         0.0169 
     62 H62        14.2501  -24.8506  -40.4545 H         1 UNK         0.0903 
     63 H63        15.8089  -24.0286  -40.3681 H         1 UNK         0.0903 
     64 H64        14.3666  -23.1341  -40.8530 H         1 UNK         0.0903 
     65 H65        17.1481  -24.4900  -42.1333 H         1 UNK         0.3096 
     66 H66        16.2139  -24.3751  -44.8286 H         1 UNK         0.1121 
     67 H67        15.5411  -26.6583  -44.5805 H         1 UNK         0.0849 
     68 H68        17.0441  -26.7066  -45.4485 H         1 UNK         0.0849 
     69 H69        16.0655  -29.6962  -42.8727 H         1 UNK         0.0865 
     70 H70        15.6412  -29.0177  -44.4203 H         1 UNK         0.0865 
     71 H71        17.5568  -31.5510  -42.8327 H         1 UNK         0.1346 
     72 H72        20.2001  -32.3304  -46.1116 H         1 UNK         0.1412 
     73 H73        17.6566  -28.8802  -46.1915 H         1 UNK         0.1426 
     74 H74        20.4264  -30.8115  -47.8947 H         1 UNK         0.0716 
     75 H75        18.9302  -30.0530  -48.3812 H         1 UNK         0.0716 
     76 H76        21.9538  -29.2585  -45.6988 H         1 UNK         0.0695 
     77 H77        20.4125  -28.8094  -45.0182 H         1 UNK         0.0695 
     78 H78        22.6637  -26.9392  -45.8185 H         1 UNK         0.0983 
     79 H79        19.8635  -26.2886  -45.7009 H         1 UNK         0.3095 
     80 H80        20.1971  -22.8419  -45.3308 H         1 UNK         0.0454 
     81 H81        19.8158  -24.2166  -48.0463 H         1 UNK         0.0851 
     82 H82        19.2775  -22.5902  -47.6227 H         1 UNK         0.0851 
     83 H83        20.9911  -22.9576  -47.6970 H         1 UNK         0.0851 
     84 H84        18.0155  -24.3487  -46.3158 H         1 UNK         0.2976 
     85 H85        20.8448  -25.7518  -43.2479 H         1 UNK         0.3116 
     86 H86        21.4578  -27.3653  -41.0761 H         1 UNK         0.0646 
     87 H87        19.7207  -25.6357  -41.0114 H         1 UNK         0.0847 
     88 H88        20.8628  -25.3318  -39.7171 H         1 UNK         0.0847 
     89 H89        20.9216  -24.3536  -41.1778 H         1 UNK         0.0847 
     90 H90        23.7872  -25.5756  -42.7716 H         1 UNK         0.3040 
     91 H91        25.7518  -25.1792  -40.6958 H         1 UNK         0.1015 
     92 H92        26.0665  -25.6753  -43.7111 H         1 UNK         0.0786 
     93 H93        27.3367  -25.1146  -42.6320 H         1 UNK         0.0786 
     94 H94        25.9381  -24.0969  -42.9329 H         1 UNK         0.0786 
     95 H95        24.5153  -28.0139  -42.3564 H         1 UNK         0.3172 
     96 H96        26.3121  -29.7701  -40.7651 H         1 UNK         0.0595 
     97 H97        25.5372  -30.1818  -43.7077 H         1 UNK         0.0839 
     98 H98        26.4153  -31.3305  -42.7049 H         1 UNK         0.0839 
     99 H99        27.1551  -29.7933  -43.1236 H         1 UNK         0.0839 
    100 H100       24.0942  -28.9413  -39.6683 H         1 UNK         0.2998 
    101 H101       21.6429  -30.1398  -40.3424 H         1 UNK         0.0822 
    102 H102       22.6814  -29.1013  -37.6481 H         1 UNK         0.0787 
    103 H103       21.8049  -28.1698  -38.8603 H         1 UNK         0.0787 
    104 H104       20.9958  -29.4552  -37.9974 H         1 UNK         0.0787 
    105 H105       24.3172  -31.8170  -39.1725 H         1 UNK         0.3055 
    106 H106       23.2859  -33.6667  -37.3260 H         1 UNK         0.1106 
    107 H107       25.7114  -33.3266  -37.7399 H         1 UNK         0.0828 
    108 H108       25.2997  -35.0160  -37.9710 H         1 UNK         0.0828 
    109 H109       25.5539  -33.9832  -39.3705 H         1 UNK         0.0828 
    110 H110       22.6331  -33.5150  -40.7337 H         1 UNK         0.2931 
    111 H111       21.7911  -36.2613  -41.0473 H         1 UNK         0.0412 
    112 H112       18.6720  -34.3821  -39.3024 H         1 UNK         0.3472 
    113 H113       20.2554  -33.6395  -39.3214 H         1 UNK         0.3472 
    114 H114       22.5059  -35.0373  -43.0107 H         1 UNK         0.0970 
    115 H115       20.8656  -35.5587  -43.2037 H         1 UNK         0.0970 
    116 H116       19.4240  -34.1692  -44.4852 H         1 UNK         0.0612 
    117 H117       18.6941  -33.6877  -42.9699 H         1 UNK         0.0612 
@<TRIPOS>BOND
     1    1    2 1    
     2    1   62 1    
     3    1   63 1    
     4    1   64 1    
     5    2    3 2    
     6    2    4 am   BACKBONE|DICT|INTERRES
     7    4    5 1    
     8    4   65 1    
     9    5    6 1    
    10    5   25 1    
    11    5   66 1    
    12    6    7 1    
    13    6   67 1    
    14    6   68 1    
    15    7    8 1    
    16    8    9 1    
    17    8   69 1    
    18    8   70 1    
    19    9   10 ar   
    20    9   14 ar   
    21   10   11 ar   
    22   10   71 1    
    23   11   12 ar   
    24   11   61 1    
    25   12   13 ar   
    26   12   72 1    
    27   13   14 ar   
    28   13   15 1    
    29   14   73 1    
    30   15   16 1    
    31   15   74 1    
    32   15   75 1    
    33   16   17 1    
    34   17   18 1    
    35   17   76 1    
    36   17   77 1    
    37   18   19 1    
    38   18   27 1    
    39   18   78 1    
    40   19   20 am   BACKBONE|DICT|INTERRES
    41   19   79 1    
    42   20   21 2    
    43   20   22 1    
    44   22   23 1    
    45   22   24 1    
    46   22   80 1    
    47   23   81 1    
    48   23   82 1    
    49   23   83 1    
    50   24   25 am   BACKBONE|DICT|INTERRES
    51   24   84 1    
    52   25   26 2    
    53   27   28 2    
    54   27   29 am   BACKBONE|DICT|INTERRES
    55   29   30 1    
    56   29   85 1    
    57   30   31 1    
    58   30   32 1    
    59   30   86 1    
    60   31   87 1    
    61   31   88 1    
    62   31   89 1    
    63   32   33 2    
    64   32   34 am   BACKBONE|DICT|INTERRES
    65   34   35 1    
    66   34   90 1    
    67   35   36 1    
    68   35   37 1    
    69   35   91 1    
    70   36   92 1    
    71   36   93 1    
    72   36   94 1    
    73   37   38 2    
    74   37   39 am   BACKBONE|DICT|INTERRES
    75   39   40 1    
    76   39   95 1    
    77   40   41 1    
    78   40   42 1    
    79   40   96 1    
    80   41   97 1    
    81   41   98 1    
    82   41   99 1    
    83   42   43 2    
    84   42   44 am   BACKBONE|DICT|INTERRES
    85   44   45 1    
    86   44  100 1    
    87   45   46 1    
    88   45   47 1    
    89   45  101 1    
    90   46  102 1    
    91   46  103 1    
    92   46  104 1    
    93   47   48 2    
    94   47   49 am   BACKBONE|DICT|INTERRES
    95   49   50 1    
    96   49  105 1    
    97   50   51 1    
    98   50   52 1    
    99   50  106 1    
   100   51  107 1    
   101   51  108 1    
   102   51  109 1    
   103   52   53 2    
   104   52   54 am   BACKBONE|DICT|INTERRES
   105   54   55 1    
   106   54  110 1    
   107   55   56 1    
   108   55   59 1    
   109   55  111 1    
   110   56   57 am   BACKBONE|DICT|INTERRES
   111   56   58 2    
   112   57  112 1    
   113   57  113 1    
   114   59   60 1    
   115   59  114 1    
   116   59  115 1    
   117   60   61 1    
   118   61  116 1    
   119   61  117 1    
@<TRIPOS>SUBSTRUCTURE
     1 UNK         1 GROUP             0       ****    0 ROOT    
