@<TRIPOS>MOLECULE
3R8
117   119    1
SMALL
USER_CHARGES


@<TRIPOS>ATOM
      1 CA         17.1350  -27.9849  -40.0629 C.3       0 UNK        -0.2013 
      2 C          17.4106  -26.7488  -40.9046 C.2       0 UNK         0.4866 
      3 O          17.7824  -25.7085  -40.3631 O.2       0 UNK        -0.5176 
      4 N          17.2237  -26.8504  -42.2269 N.am      1 UNK        -0.4884 
      5 CA         17.3664  -25.7383  -43.1803 C.3       1 UNK         0.0853 
      6 C6         16.5255  -25.9397  -44.4719 C.3       10 UNK        -0.0849 
      7 S7         14.8338  -26.5638  -44.1453 S.3       10 UNK        -0.2776 
      8 C8         14.7220  -28.0825  -45.1591 C.3       10 UNK         0.0316 
      9 C9         15.9683  -28.9592  -45.0935 C.ar      10 UNK        -0.0863 
     10 C10        16.3695  -29.5489  -43.8906 C.ar      10 UNK        -0.1009 
     11 C11        17.5437  -30.3078  -43.8312 C.ar      10 UNK        -0.0712 
     12 C12        18.2900  -30.5152  -44.9950 C.ar      10 UNK        -0.0894 
     13 C13        17.8924  -29.9413  -46.2044 C.ar      10 UNK        -0.0745 
     14 C14        16.7329  -29.1633  -46.2465 C.ar      10 UNK        -0.0972 
     15 C15        18.7095  -30.1537  -47.4688 C.3       10 UNK         0.0209 
     16 S16        19.9898  -28.8746  -47.6551 S.3       10 UNK        -0.2568 
     17 C17        21.4287  -29.6806  -46.8810 C.3       10 UNK        -0.0983 
     18 CA         22.4710  -28.6627  -46.3348 C.3       3 UNK         0.0876 
     19 N          22.0745  -28.0636  -45.0602 N.am      3 UNK        -0.4424 
     20 C          21.4436  -26.8955  -44.9100 C.2       2 UNK         0.4918 
     21 O          21.1069  -26.1616  -45.8403 O.2       2 UNK        -0.4875 
     22 CA         21.1680  -26.4786  -43.4568 C.3       2 UNK         0.0481 
     23 CB         21.9351  -25.2006  -43.0631 C.3       2 UNK        -0.1831 
     24 N          19.7339  -26.3927  -43.1762 N.am      2 UNK        -0.4498 
     25 C          18.8425  -25.4557  -43.5383 C.2       1 UNK         0.5027 
     26 O          19.1214  -24.4095  -44.1252 O.2       1 UNK        -0.4969 
     27 C          23.8707  -29.2637  -46.1183 C.2       3 UNK         0.5005 
     28 O          24.8428  -28.5089  -46.0612 O.2       3 UNK        -0.5279 
     29 N          23.9585  -30.5969  -45.9833 N.am      4 UNK        -0.4463 
     30 CA         25.2031  -31.3471  -45.7666 C.3       4 UNK         0.0283 
     31 CB         24.9245  -32.8485  -45.9450 C.3       4 UNK        -0.1875 
     32 C          25.8600  -31.0847  -44.3985 C.2       4 UNK         0.4949 
     33 O          27.0683  -31.2782  -44.2616 O.2       4 UNK        -0.5039 
     34 N          25.0597  -30.6405  -43.4250 N.am      5 UNK        -0.4663 
     35 CA         25.4897  -30.1489  -42.1229 C.3       5 UNK         0.0242 
     36 CB         25.2093  -31.2171  -41.0549 C.3       5 UNK        -0.1982 
     37 C          24.7201  -28.8562  -41.8314 C.2       5 UNK         0.5017 
     38 O          23.6120  -28.6733  -42.3495 O.2       5 UNK        -0.5012 
     39 N          25.3166  -27.9913  -41.0022 N.am      6 UNK        -0.4439 
     40 CA         24.7910  -26.6826  -40.6114 C.3       6 UNK         0.0297 
     41 CB         25.9509  -25.8099  -40.0975 C.3       6 UNK        -0.2006 
     42 C          23.6606  -26.8153  -39.5769 C.2       6 UNK         0.4892 
     43 O          23.8990  -26.6509  -38.3804 O.2       6 UNK        -0.5089 
     44 N          22.4635  -27.1634  -40.0673 N.am      7 UNK        -0.4243 
     45 CA         21.1958  -27.3591  -39.3446 C.3       7 UNK         0.0196 
     46 CB         20.7815  -26.0927  -38.5691 C.3       7 UNK        -0.2007 
     47 C          21.1405  -28.6203  -38.4587 C.2       7 UNK         0.5020 
     48 O          20.0710  -28.9456  -37.9455 O.2       7 UNK        -0.5147 
     49 N          22.2572  -29.3507  -38.3465 N.am      8 UNK        -0.4734 
     50 CA         22.3506  -30.6823  -37.7357 C.3       8 UNK         0.0238 
     51 CB         23.7523  -30.8460  -37.1217 C.3       8 UNK        -0.1912 
     52 C          22.0396  -31.8121  -38.7414 C.2       8 UNK         0.5038 
     53 O          22.2531  -32.9830  -38.4243 O.2       8 UNK        -0.5046 
     54 N          21.5742  -31.4354  -39.9387 N.am      9 UNK        -0.4200 
     55 CA         21.1453  -32.2944  -41.0462 C.3       9 UNK         0.0839 
     56 C          20.0073  -33.2888  -40.6766 C.2       9 UNK         0.5513 
     57 N          19.9205  -34.4100  -41.3797 N.am      9 UNK        -0.7519 
     58 O          19.1857  -33.0421  -39.7962 O.2       9 UNK        -0.4960 
     59 C59        20.7872  -31.4324  -42.2900 C.3       10 UNK        -0.0876 
     60 S60        19.5621  -30.1126  -41.9500 S.3       10 UNK        -0.2414 
     61 C61        18.0142  -30.8968  -42.5113 C.3       10 UNK         0.0169 
     62 H62        18.0700  -28.4570  -39.7647 H         1 UNK         0.0903 
     63 H63        16.5909  -27.7113  -39.1593 H         1 UNK         0.0903 
     64 H64        16.5371  -28.7174  -40.6033 H         1 UNK         0.0903 
     65 H65        16.9101  -27.7215  -42.6319 H         1 UNK         0.3096 
     66 H66        16.9916  -24.8363  -42.6905 H         1 UNK         0.1121 
     67 H67        17.0431  -26.5980  -45.1697 H         1 UNK         0.0849 
     68 H68        16.4309  -24.9884  -44.9987 H         1 UNK         0.0849 
     69 H69        13.8593  -28.6635  -44.8301 H         1 UNK         0.0865 
     70 H70        14.5123  -27.7913  -46.1895 H         1 UNK         0.0865 
     71 H71        15.7729  -29.4007  -43.0007 H         1 UNK         0.1346 
     72 H72        19.1896  -31.1115  -44.9539 H         1 UNK         0.1412 
     73 H73        16.4325  -28.7080  -47.1806 H         1 UNK         0.1426 
     74 H74        18.0545  -30.1191  -48.3407 H         1 UNK         0.0716 
     75 H75        19.1618  -31.1467  -47.4731 H         1 UNK         0.0716 
     76 H76        21.0934  -30.3486  -46.0870 H         1 UNK         0.0695 
     77 H77        21.8671  -30.3106  -47.6577 H         1 UNK         0.0695 
     78 H78        22.6056  -27.8751  -47.0801 H         1 UNK         0.0983 
     79 H79        22.4020  -28.5376  -44.2272 H         1 UNK         0.3095 
     80 H80        21.5202  -27.2768  -42.8054 H         1 UNK         0.0454 
     81 H81        23.0080  -25.3420  -43.1921 H         1 UNK         0.0851 
     82 H82        21.7592  -24.9332  -42.0213 H         1 UNK         0.0851 
     83 H83        21.6570  -24.3472  -43.6814 H         1 UNK         0.0851 
     84 H84        19.3428  -27.2062  -42.7217 H         1 UNK         0.2976 
     85 H85        23.1127  -31.1446  -46.0485 H         1 UNK         0.3116 
     86 H86        25.9168  -31.0389  -46.5337 H         1 UNK         0.0646 
     87 H87        24.2037  -33.2166  -45.2138 H         1 UNK         0.0847 
     88 H88        24.5377  -33.0670  -46.9405 H         1 UNK         0.0847 
     89 H89        25.8383  -33.4317  -45.8213 H         1 UNK         0.0847 
     90 H90        24.0934  -30.4478  -43.6458 H         1 UNK         0.3040 
     91 H91        26.5579  -29.9198  -42.1411 H         1 UNK         0.1015 
     92 H92        25.5214  -30.8770  -40.0675 H         1 UNK         0.0786 
     93 H93        25.7543  -32.1372  -41.2663 H         1 UNK         0.0786 
     94 H94        24.1499  -31.4644  -41.0024 H         1 UNK         0.0786 
     95 H95        26.2076  -28.2468  -40.6001 H         1 UNK         0.3172 
     96 H96        24.3817  -26.1930  -41.4963 H         1 UNK         0.0595 
     97 H97        26.4442  -26.2547  -39.2322 H         1 UNK         0.0839 
     98 H98        25.5925  -24.8247  -39.7959 H         1 UNK         0.0839 
     99 H99        26.7042  -25.6554  -40.8703 H         1 UNK         0.0839 
    100 H100       22.4379  -27.3888  -41.0547 H         1 UNK         0.2998 
    101 H101       20.4463  -27.5161  -40.1215 H         1 UNK         0.0822 
    102 H102       19.7758  -26.2003  -38.1604 H         1 UNK         0.0787 
    103 H103       20.7701  -25.2174  -39.2187 H         1 UNK         0.0787 
    104 H104       21.4495  -25.8864  -37.7327 H         1 UNK         0.0787 
    105 H105       23.0992  -28.9844  -38.7671 H         1 UNK         0.3055 
    106 H106       21.6155  -30.7631  -36.9316 H         1 UNK         0.1106 
    107 H107       24.5343  -30.8110  -37.8798 H         1 UNK         0.0828 
    108 H108       23.9582  -30.0630  -36.3916 H         1 UNK         0.0828 
    109 H109       23.8451  -31.8006  -36.6020 H         1 UNK         0.0828 
    110 H110       21.3970  -30.4526  -40.0742 H         1 UNK         0.2931 
    111 H111       22.0159  -32.8995  -41.3068 H         1 UNK         0.0412 
    112 H112       19.1830  -35.0639  -41.1670 H         1 UNK         0.3472 
    113 H113       20.5845  -34.6262  -42.1069 H         1 UNK         0.3472 
    114 H114       21.6918  -30.9431  -42.6538 H         1 UNK         0.0970 
    115 H115       20.4516  -32.0597  -43.1173 H         1 UNK         0.0970 
    116 H116       17.2586  -30.7604  -41.7371 H         1 UNK         0.0612 
    117 H117       18.1397  -31.9746  -42.6185 H         1 UNK         0.0612 
@<TRIPOS>BOND
     1    1    2 1    
     2    1   62 1    
     3    1   63 1    
     4    1   64 1    
     5    2    3 2    
     6    2    4 am   BACKBONE|DICT|INTERRES
     7    4    5 1    
     8    4   65 1    
     9    5    6 1    
    10    5   25 1    
    11    5   66 1    
    12    6    7 1    
    13    6   67 1    
    14    6   68 1    
    15    7    8 1    
    16    8    9 1    
    17    8   69 1    
    18    8   70 1    
    19    9   10 ar   
    20    9   14 ar   
    21   10   11 ar   
    22   10   71 1    
    23   11   12 ar   
    24   11   61 1    
    25   12   13 ar   
    26   12   72 1    
    27   13   14 ar   
    28   13   15 1    
    29   14   73 1    
    30   15   16 1    
    31   15   74 1    
    32   15   75 1    
    33   16   17 1    
    34   17   18 1    
    35   17   76 1    
    36   17   77 1    
    37   18   19 1    
    38   18   27 1    
    39   18   78 1    
    40   19   20 am   BACKBONE|DICT|INTERRES
    41   19   79 1    
    42   20   21 2    
    43   20   22 1    
    44   22   23 1    
    45   22   24 1    
    46   22   80 1    
    47   23   81 1    
    48   23   82 1    
    49   23   83 1    
    50   24   25 am   BACKBONE|DICT|INTERRES
    51   24   84 1    
    52   25   26 2    
    53   27   28 2    
    54   27   29 am   BACKBONE|DICT|INTERRES
    55   29   30 1    
    56   29   85 1    
    57   30   31 1    
    58   30   32 1    
    59   30   86 1    
    60   31   87 1    
    61   31   88 1    
    62   31   89 1    
    63   32   33 2    
    64   32   34 am   BACKBONE|DICT|INTERRES
    65   34   35 1    
    66   34   90 1    
    67   35   36 1    
    68   35   37 1    
    69   35   91 1    
    70   36   92 1    
    71   36   93 1    
    72   36   94 1    
    73   37   38 2    
    74   37   39 am   BACKBONE|DICT|INTERRES
    75   39   40 1    
    76   39   95 1    
    77   40   41 1    
    78   40   42 1    
    79   40   96 1    
    80   41   97 1    
    81   41   98 1    
    82   41   99 1    
    83   42   43 2    
    84   42   44 am   BACKBONE|DICT|INTERRES
    85   44   45 1    
    86   44  100 1    
    87   45   46 1    
    88   45   47 1    
    89   45  101 1    
    90   46  102 1    
    91   46  103 1    
    92   46  104 1    
    93   47   48 2    
    94   47   49 am   BACKBONE|DICT|INTERRES
    95   49   50 1    
    96   49  105 1    
    97   50   51 1    
    98   50   52 1    
    99   50  106 1    
   100   51  107 1    
   101   51  108 1    
   102   51  109 1    
   103   52   53 2    
   104   52   54 am   BACKBONE|DICT|INTERRES
   105   54   55 1    
   106   54  110 1    
   107   55   56 1    
   108   55   59 1    
   109   55  111 1    
   110   56   57 am   BACKBONE|DICT|INTERRES
   111   56   58 2    
   112   57  112 1    
   113   57  113 1    
   114   59   60 1    
   115   59  114 1    
   116   59  115 1    
   117   60   61 1    
   118   61  116 1    
   119   61  117 1    
@<TRIPOS>SUBSTRUCTURE
     1 UNK         1 GROUP             0       ****    0 ROOT    
