@<TRIPOS>MOLECULE
3R8
117   119    1
SMALL
USER_CHARGES


@<TRIPOS>ATOM
      1 CA         14.6505  -22.6376  -41.7308 C.3       0 UNK        -0.2013 
      2 C          15.5432  -23.6426  -42.4424 C.2       0 UNK         0.4866 
      3 O          16.5510  -24.0706  -41.8797 O.2       0 UNK        -0.5176 
      4 N          15.1933  -24.0083  -43.6836 N.am      1 UNK        -0.4884 
      5 CA         15.8603  -24.9804  -44.5676 C.3       1 UNK         0.0853 
      6 C6         15.9810  -26.3956  -43.9365 C.3       10 UNK        -0.0849 
      7 S7         15.9840  -27.7271  -45.1858 S.3       10 UNK        -0.2776 
      8 C8         16.0047  -29.2173  -44.1383 C.3       10 UNK         0.0316 
      9 C9         17.3884  -29.4894  -43.5655 C.ar      10 UNK        -0.0863 
     10 C10        18.2968  -30.2952  -44.2620 C.ar      10 UNK        -0.1009 
     11 C11        19.5652  -30.5543  -43.7325 C.ar      10 UNK        -0.0712 
     12 C12        19.9256  -29.9907  -42.5073 C.ar      10 UNK        -0.0894 
     13 C13        19.0301  -29.1800  -41.8070 C.ar      10 UNK        -0.0745 
     14 C14        17.7581  -28.9437  -42.3327 C.ar      10 UNK        -0.0972 
     15 C15        19.4458  -28.5461  -40.4911 C.3       10 UNK         0.0209 
     16 S16        19.9215  -26.8014  -40.7112 S.3       10 UNK        -0.2568 
     17 C17        21.4106  -26.9442  -41.7584 C.3       10 UNK        -0.0983 
     18 CA         21.1232  -26.6991  -43.2617 C.3       3 UNK         0.0876 
     19 N          20.5218  -25.3776  -43.4784 N.am      3 UNK        -0.4424 
     20 C          20.2991  -24.7338  -44.6334 C.2       2 UNK         0.4918 
     21 O          20.6635  -25.1205  -45.7444 O.2       2 UNK        -0.4875 
     22 CA         19.4363  -23.4670  -44.5035 C.3       2 UNK         0.0481 
     23 CB         19.6005  -22.4897  -45.6871 C.3       2 UNK        -0.1831 
     24 N          18.0340  -23.8453  -44.2926 N.am      2 UNK        -0.4498 
     25 C          17.2156  -24.4971  -45.1343 C.2       1 UNK         0.5027 
     26 O          17.4789  -24.7240  -46.3157 O.2       1 UNK        -0.4969 
     27 C          22.3885  -26.9544  -44.1094 C.2       3 UNK         0.5005 
     28 O          23.4545  -26.4167  -43.8010 O.2       3 UNK        -0.5279 
     29 N          22.2345  -27.7553  -45.1731 N.am      4 UNK        -0.4463 
     30 CA         23.2479  -27.9833  -46.2078 C.3       4 UNK         0.0283 
     31 CB         22.5605  -28.5830  -47.4458 C.3       4 UNK        -0.1875 
     32 C          24.4253  -28.8740  -45.7755 C.2       4 UNK         0.4949 
     33 O          25.4672  -28.8409  -46.4307 O.2       4 UNK        -0.5039 
     34 N          24.2442  -29.6623  -44.7101 N.am      5 UNK        -0.4663 
     35 CA         25.2249  -30.6268  -44.2086 C.3       5 UNK         0.0242 
     36 CB         24.9283  -32.0162  -44.8058 C.3       5 UNK        -0.1982 
     37 C          25.2565  -30.6080  -42.6735 C.2       5 UNK         0.5017 
     38 O          25.2770  -31.6683  -42.0447 O.2       5 UNK        -0.5012 
     39 N          25.2424  -29.3909  -42.1076 N.am      6 UNK        -0.4439 
     40 CA         25.1851  -29.0661  -40.6753 C.3       6 UNK         0.0297 
     41 CB         26.4042  -29.6489  -39.9260 C.3       6 UNK        -0.2006 
     42 C          23.8517  -29.4777  -40.0216 C.2       6 UNK         0.4892 
     43 O          22.9741  -30.0287  -40.6883 O.2       6 UNK        -0.5089 
     44 N          23.7157  -29.1882  -38.7196 N.am      7 UNK        -0.4243 
     45 CA         22.5056  -29.4086  -37.9151 C.3       7 UNK         0.0196 
     46 CB         22.7651  -28.9349  -36.4759 C.3       7 UNK        -0.2007 
     47 C          21.9814  -30.8580  -37.9118 C.2       7 UNK         0.5020 
     48 O          20.7752  -31.0642  -37.7796 O.2       7 UNK        -0.5147 
     49 N          22.8910  -31.8289  -38.0622 N.am      8 UNK        -0.4734 
     50 CA         22.5798  -33.2570  -38.1392 C.3       8 UNK         0.0238 
     51 CB         23.8260  -34.0547  -37.7190 C.3       8 UNK        -0.1912 
     52 C          22.1007  -33.7173  -39.5293 C.2       8 UNK         0.5038 
     53 O          21.5392  -34.8098  -39.6188 O.2       8 UNK        -0.5046 
     54 N          22.3434  -32.9149  -40.5777 N.am      9 UNK        -0.4200 
     55 CA         22.1404  -33.2630  -41.9927 C.3       9 UNK         0.0839 
     56 C          23.0081  -34.4830  -42.4224 C.2       9 UNK         0.5513 
     57 N          24.3252  -34.3654  -42.3226 N.am      9 UNK        -0.7519 
     58 O          22.5080  -35.5320  -42.8217 O.2       9 UNK        -0.4960 
     59 C59        20.6353  -33.3714  -42.3708 C.3       10 UNK        -0.0876 
     60 S60        20.3112  -33.2047  -44.1644 S.3       10 UNK        -0.2414 
     61 C61        20.5581  -31.4274  -44.4842 C.3       10 UNK         0.0169 
     62 H62        13.7976  -22.3431  -42.3420 H         1 UNK         0.0903 
     63 H63        14.2710  -23.0654  -40.8033 H         1 UNK         0.0903 
     64 H64        15.2178  -21.7403  -41.4849 H         1 UNK         0.0903 
     65 H65        14.3717  -23.5799  -44.0894 H         1 UNK         0.3096 
     66 H66        15.1906  -25.0584  -45.4264 H         1 UNK         0.1121 
     67 H67        16.8738  -26.4693  -43.3132 H         1 UNK         0.0849 
     68 H68        15.1350  -26.5796  -43.2724 H         1 UNK         0.0849 
     69 H69        15.6813  -30.0702  -44.7370 H         1 UNK         0.0865 
     70 H70        15.2708  -29.1185  -43.3368 H         1 UNK         0.0865 
     71 H71        18.0160  -30.7243  -45.2143 H         1 UNK         0.1346 
     72 H72        20.9070  -30.1839  -42.0988 H         1 UNK         0.1412 
     73 H73        17.0635  -28.3195  -41.7871 H         1 UNK         0.1426 
     74 H74        20.2723  -29.1023  -40.0497 H         1 UNK         0.0716 
     75 H75        18.6220  -28.6044  -39.7783 H         1 UNK         0.0716 
     76 H76        21.8502  -27.9290  -41.6115 H         1 UNK         0.0695 
     77 H77        22.1480  -26.2292  -41.3885 H         1 UNK         0.0695 
     78 H78        20.3654  -27.4176  -43.5771 H         1 UNK         0.0983 
     79 H79        20.1538  -24.9577  -42.6370 H         1 UNK         0.3095 
     80 H80        19.7558  -22.9413  -43.6022 H         1 UNK         0.0454 
     81 H81        18.9763  -21.6055  -45.5598 H         1 UNK         0.0851 
     82 H82        19.3434  -22.9457  -46.6432 H         1 UNK         0.0851 
     83 H83        20.6338  -22.1500  -45.7636 H         1 UNK         0.0851 
     84 H84        17.6902  -23.7539  -43.3390 H         1 UNK         0.2976 
     85 H85        21.3157  -28.1294  -45.3633 H         1 UNK         0.3116 
     86 H86        23.6636  -27.0130  -46.4885 H         1 UNK         0.0646 
     87 H87        23.2752  -28.7321  -48.2565 H         1 UNK         0.0847 
     88 H88        21.7794  -27.9236  -47.8253 H         1 UNK         0.0847 
     89 H89        22.1090  -29.5519  -47.2288 H         1 UNK         0.0847 
     90 H90        23.3715  -29.6014  -44.2055 H         1 UNK         0.3040 
     91 H91        26.2294  -30.3348  -44.5234 H         1 UNK         0.1015 
     92 H92        24.9965  -31.9995  -45.8935 H         1 UNK         0.0786 
     93 H93        23.9303  -32.3650  -44.5419 H         1 UNK         0.0786 
     94 H94        25.6437  -32.7597  -44.4520 H         1 UNK         0.0786 
     95 H95        25.1890  -28.5966  -42.7312 H         1 UNK         0.3172 
     96 H96        25.2391  -27.9781  -40.6149 H         1 UNK         0.0595 
     97 H97        26.3442  -30.7334  -39.8278 H         1 UNK         0.0839 
     98 H98        26.4896  -29.2381  -38.9198 H         1 UNK         0.0839 
     99 H99        27.3349  -29.4137  -40.4426 H         1 UNK         0.0839 
    100 H100       24.4839  -28.7327  -38.2483 H         1 UNK         0.2998 
    101 H101       21.7213  -28.7784  -38.3360 H         1 UNK         0.0822 
    102 H102       23.5722  -29.4976  -36.0049 H         1 UNK         0.0787 
    103 H103       23.0289  -27.8775  -36.4461 H         1 UNK         0.0787 
    104 H104       21.8756  -29.0611  -35.8567 H         1 UNK         0.0787 
    105 H105       23.8598  -31.5636  -38.1660 H         1 UNK         0.3055 
    106 H106       21.7771  -33.4803  -37.4322 H         1 UNK         0.1106 
    107 H107       23.6242  -35.1268  -37.7248 H         1 UNK         0.0828 
    108 H108       24.6649  -33.8787  -38.3938 H         1 UNK         0.0828 
    109 H109       24.1441  -33.7935  -36.7095 H         1 UNK         0.0828 
    110 H110       22.7765  -32.0117  -40.4159 H         1 UNK         0.2931 
    111 H111       22.5439  -32.4079  -42.5337 H         1 UNK         0.0412 
    112 H112       24.7371  -33.4752  -42.0533 H         1 UNK         0.3472 
    113 H113       24.9157  -35.1398  -42.5798 H         1 UNK         0.3472 
    114 H114       20.2279  -34.3264  -42.0350 H         1 UNK         0.0970 
    115 H115       20.0549  -32.6166  -41.8412 H         1 UNK         0.0970 
    116 H116       21.5814  -31.1483  -44.2320 H         1 UNK         0.0612 
    117 H117       20.4572  -31.2516  -45.5562 H         1 UNK         0.0612 
@<TRIPOS>BOND
     1    1    2 1    
     2    1   62 1    
     3    1   63 1    
     4    1   64 1    
     5    2    3 2    
     6    2    4 am   BACKBONE|DICT|INTERRES
     7    4    5 1    
     8    4   65 1    
     9    5    6 1    
    10    5   25 1    
    11    5   66 1    
    12    6    7 1    
    13    6   67 1    
    14    6   68 1    
    15    7    8 1    
    16    8    9 1    
    17    8   69 1    
    18    8   70 1    
    19    9   10 ar   
    20    9   14 ar   
    21   10   11 ar   
    22   10   71 1    
    23   11   12 ar   
    24   11   61 1    
    25   12   13 ar   
    26   12   72 1    
    27   13   14 ar   
    28   13   15 1    
    29   14   73 1    
    30   15   16 1    
    31   15   74 1    
    32   15   75 1    
    33   16   17 1    
    34   17   18 1    
    35   17   76 1    
    36   17   77 1    
    37   18   19 1    
    38   18   27 1    
    39   18   78 1    
    40   19   20 am   BACKBONE|DICT|INTERRES
    41   19   79 1    
    42   20   21 2    
    43   20   22 1    
    44   22   23 1    
    45   22   24 1    
    46   22   80 1    
    47   23   81 1    
    48   23   82 1    
    49   23   83 1    
    50   24   25 am   BACKBONE|DICT|INTERRES
    51   24   84 1    
    52   25   26 2    
    53   27   28 2    
    54   27   29 am   BACKBONE|DICT|INTERRES
    55   29   30 1    
    56   29   85 1    
    57   30   31 1    
    58   30   32 1    
    59   30   86 1    
    60   31   87 1    
    61   31   88 1    
    62   31   89 1    
    63   32   33 2    
    64   32   34 am   BACKBONE|DICT|INTERRES
    65   34   35 1    
    66   34   90 1    
    67   35   36 1    
    68   35   37 1    
    69   35   91 1    
    70   36   92 1    
    71   36   93 1    
    72   36   94 1    
    73   37   38 2    
    74   37   39 am   BACKBONE|DICT|INTERRES
    75   39   40 1    
    76   39   95 1    
    77   40   41 1    
    78   40   42 1    
    79   40   96 1    
    80   41   97 1    
    81   41   98 1    
    82   41   99 1    
    83   42   43 2    
    84   42   44 am   BACKBONE|DICT|INTERRES
    85   44   45 1    
    86   44  100 1    
    87   45   46 1    
    88   45   47 1    
    89   45  101 1    
    90   46  102 1    
    91   46  103 1    
    92   46  104 1    
    93   47   48 2    
    94   47   49 am   BACKBONE|DICT|INTERRES
    95   49   50 1    
    96   49  105 1    
    97   50   51 1    
    98   50   52 1    
    99   50  106 1    
   100   51  107 1    
   101   51  108 1    
   102   51  109 1    
   103   52   53 2    
   104   52   54 am   BACKBONE|DICT|INTERRES
   105   54   55 1    
   106   54  110 1    
   107   55   56 1    
   108   55   59 1    
   109   55  111 1    
   110   56   57 am   BACKBONE|DICT|INTERRES
   111   56   58 2    
   112   57  112 1    
   113   57  113 1    
   114   59   60 1    
   115   59  114 1    
   116   59  115 1    
   117   60   61 1    
   118   61  116 1    
   119   61  117 1    
@<TRIPOS>SUBSTRUCTURE
     1 UNK         1 GROUP             0       ****    0 ROOT    
