@<TRIPOS>MOLECULE
3R8
117   119    1
SMALL
USER_CHARGES


@<TRIPOS>ATOM
      1 CA         12.3592  -26.7858  -40.5174 C.3       0 UNK        -0.2013 
      2 C          13.2292  -26.3868  -41.7001 C.2       0 UNK         0.4866 
      3 O          12.9269  -25.4060  -42.3803 O.2       0 UNK        -0.5176 
      4 N          14.3062  -27.1368  -41.9501 N.am      1 UNK        -0.4884 
      5 CA         15.2784  -26.9003  -43.0148 C.3       1 UNK         0.0853 
      6 C6         14.7938  -27.4731  -44.3697 C.3       10 UNK        -0.0849 
      7 S7         15.6931  -26.7742  -45.7949 S.3       10 UNK        -0.2776 
      8 C8         16.1382  -28.2758  -46.7230 C.3       10 UNK         0.0316 
      9 C9         17.4946  -28.8361  -46.3157 C.ar      10 UNK        -0.0863 
     10 C10        17.5953  -29.8644  -45.3726 C.ar      10 UNK        -0.1009 
     11 C11        18.8372  -30.4407  -45.0797 C.ar      10 UNK        -0.0712 
     12 C12        19.9873  -29.9634  -45.7193 C.ar      10 UNK        -0.0894 
     13 C13        19.8966  -28.9402  -46.6690 C.ar      10 UNK        -0.0745 
     14 C14        18.6499  -28.3759  -46.9530 C.ar      10 UNK        -0.0972 
     15 C15        21.1178  -28.5041  -47.4676 C.3       10 UNK         0.0209 
     16 S16        21.6568  -26.8126  -47.0644 S.3       10 UNK        -0.2568 
     17 C17        22.8426  -27.0976  -45.7117 C.3       10 UNK        -0.0983 
     18 CA         22.4038  -26.4162  -44.3951 C.3       3 UNK         0.0876 
     19 N          21.2584  -27.0831  -43.7826 N.am      3 UNK        -0.4424 
     20 C          20.0492  -26.5471  -43.6063 C.2       2 UNK         0.4918 
     21 O          19.6956  -25.4537  -44.0566 O.2       2 UNK        -0.4875 
     22 CA         19.0907  -27.3518  -42.7235 C.3       2 UNK         0.0481 
     23 CB         19.4505  -27.1763  -41.2342 C.3       2 UNK        -0.1831 
     24 N          17.7239  -26.9139  -42.9833 N.am      2 UNK        -0.4498 
     25 C          16.6096  -27.5209  -42.5642 C.2       1 UNK         0.5027 
     26 O          16.5911  -28.5295  -41.8526 O.2       1 UNK        -0.4969 
     27 C          23.5354  -26.4908  -43.3622 C.2       3 UNK         0.5005 
     28 O          23.6918  -27.5346  -42.7275 O.2       3 UNK        -0.5279 
     29 N          24.3243  -25.4157  -43.2246 N.am      4 UNK        -0.4463 
     30 CA         25.3808  -25.2668  -42.2109 C.3       4 UNK         0.0283 
     31 CB         25.9992  -23.8642  -42.3270 C.3       4 UNK        -0.1875 
     32 C          26.4862  -26.3409  -42.2449 C.2       4 UNK         0.4949 
     33 O          27.1118  -26.5929  -41.2152 O.2       4 UNK        -0.5039 
     34 N          26.6946  -26.9646  -43.4121 N.am      5 UNK        -0.4663 
     35 CA         27.6332  -28.0703  -43.6183 C.3       5 UNK         0.0242 
     36 CB         27.8355  -28.2725  -45.1292 C.3       5 UNK        -0.1982 
     37 C          27.2028  -29.3940  -42.9548 C.2       5 UNK         0.5017 
     38 O          28.0575  -30.2570  -42.7502 O.2       5 UNK        -0.5012 
     39 N          25.9093  -29.5462  -42.6412 N.am      6 UNK        -0.4439 
     40 CA         25.3269  -30.7392  -42.0291 C.3       6 UNK         0.0297 
     41 CB         25.0631  -31.8153  -43.1028 C.3       6 UNK        -0.2006 
     42 C          24.0603  -30.3230  -41.2738 C.2       6 UNK         0.4892 
     43 O          22.9660  -30.7770  -41.6085 O.2       6 UNK        -0.5089 
     44 N          24.2331  -29.4257  -40.2921 N.am      7 UNK        -0.4243 
     45 CA         23.1590  -28.7053  -39.5955 C.3       7 UNK         0.0196 
     46 CB         23.7834  -27.6909  -38.6243 C.3       7 UNK        -0.2007 
     47 C          22.1273  -29.5878  -38.8694 C.2       7 UNK         0.5020 
     48 O          20.9901  -29.1549  -38.6847 O.2       7 UNK        -0.5147 
     49 N          22.5312  -30.8016  -38.4757 N.am      8 UNK        -0.4734 
     50 CA         21.6559  -31.8049  -37.8658 C.3       8 UNK         0.0238 
     51 CB         22.5182  -32.7846  -37.0519 C.3       8 UNK        -0.1912 
     52 C          20.7931  -32.5730  -38.8865 C.2       8 UNK         0.5038 
     53 O          19.8325  -33.2222  -38.4688 O.2       8 UNK        -0.5046 
     54 N          21.1504  -32.5137  -40.1794 N.am      9 UNK        -0.4200 
     55 CA         20.5701  -33.2950  -41.2855 C.3       9 UNK         0.0839 
     56 C          20.7370  -34.8385  -41.1099 C.2       9 UNK         0.5513 
     57 N          20.0697  -35.6514  -41.9192 N.am      9 UNK        -0.7519 
     58 O          21.5157  -35.3188  -40.2879 O.2       9 UNK        -0.4960 
     59 C59        19.1214  -32.8396  -41.6362 C.3       10 UNK        -0.0876 
     60 S60        19.0961  -31.1809  -42.3989 S.3       10 UNK        -0.2414 
     61 C61        18.9207  -31.6435  -44.1493 C.3       10 UNK         0.0169 
     62 H62        12.7413  -27.6718  -40.0107 H         1 UNK         0.0903 
     63 H63        12.3151  -25.9732  -39.7928 H         1 UNK         0.0903 
     64 H64        11.3446  -26.9987  -40.8531 H         1 UNK         0.0903 
     65 H65        14.5515  -27.9146  -41.3479 H         1 UNK         0.3096 
     66 H66        15.4216  -25.8207  -43.1066 H         1 UNK         0.1121 
     67 H67        14.8462  -28.5634  -44.3700 H         1 UNK         0.0849 
     68 H68        13.7407  -27.2309  -44.5205 H         1 UNK         0.0849 
     69 H69        15.3604  -29.0335  -46.6168 H         1 UNK         0.0865 
     70 H70        16.1564  -28.0269  -47.7853 H         1 UNK         0.0865 
     71 H71        16.7040  -30.2437  -44.8919 H         1 UNK         0.1346 
     72 H72        20.9448  -30.4214  -45.5113 H         1 UNK         0.1412 
     73 H73        18.5764  -27.5968  -47.7000 H         1 UNK         0.1426 
     74 H74        20.8656  -28.5359  -48.5285 H         1 UNK         0.0716 
     75 H75        21.9442  -29.2048  -47.3410 H         1 UNK         0.0716 
     76 H76        22.9941  -28.1680  -45.5590 H         1 UNK         0.0695 
     77 H77        23.8031  -26.7018  -46.0475 H         1 UNK         0.0695 
     78 H78        22.1789  -25.3644  -44.5860 H         1 UNK         0.0983 
     79 H79        21.4879  -27.9532  -43.3207 H         1 UNK         0.3095 
     80 H80        19.1768  -28.4005  -43.0044 H         1 UNK         0.0454 
     81 H81        19.3066  -26.1473  -40.9036 H         1 UNK         0.0851 
     82 H82        18.8497  -27.8230  -40.5948 H         1 UNK         0.0851 
     83 H83        20.4918  -27.4363  -41.0476 H         1 UNK         0.0851 
     84 H84        17.6634  -26.1118  -43.5998 H         1 UNK         0.2976 
     85 H85        24.1472  -24.6075  -43.8050 H         1 UNK         0.3116 
     86 H86        24.8984  -25.3437  -41.2342 H         1 UNK         0.0646 
     87 H87        26.7683  -23.7118  -41.5682 H         1 UNK         0.0847 
     88 H88        25.2506  -23.0847  -42.1840 H         1 UNK         0.0847 
     89 H89        26.4675  -23.7085  -43.2997 H         1 UNK         0.0847 
     90 H90        26.1349  -26.6866  -44.2046 H         1 UNK         0.3040 
     91 H91        28.5922  -27.7875  -43.1780 H         1 UNK         0.1015 
     92 H92        28.2189  -27.3690  -45.6037 H         1 UNK         0.0786 
     93 H93        26.9049  -28.5470  -45.6280 H         1 UNK         0.0786 
     94 H94        28.5561  -29.0683  -45.3241 H         1 UNK         0.0786 
     95 H95        25.2623  -28.7743  -42.7921 H         1 UNK         0.3172 
     96 H96        26.0209  -31.1460  -41.2906 H         1 UNK         0.0595 
     97 H97        25.9871  -32.1326  -43.5860 H         1 UNK         0.0839 
     98 H98        24.3874  -31.4511  -43.8778 H         1 UNK         0.0839 
     99 H99        24.6078  -32.7034  -42.6625 H         1 UNK         0.0839 
    100 H100       25.1741  -29.1114  -40.1030 H         1 UNK         0.2998 
    101 H101       22.6122  -28.1474  -40.3566 H         1 UNK         0.0822 
    102 H102       24.4252  -26.9829  -39.1494 H         1 UNK         0.0787 
    103 H103       23.0122  -27.1103  -38.1158 H         1 UNK         0.0787 
    104 H104       24.3812  -28.1836  -37.8565 H         1 UNK         0.0787 
    105 H105       23.4855  -31.0731  -38.6638 H         1 UNK         0.3055 
    106 H106       20.9703  -31.3031  -37.1787 H         1 UNK         0.1106 
    107 H107       23.2201  -33.3278  -37.6861 H         1 UNK         0.0828 
    108 H108       23.0896  -32.2669  -36.2812 H         1 UNK         0.0828 
    109 H109       21.8964  -33.5259  -36.5479 H         1 UNK         0.0828 
    110 H110       21.9189  -31.9081  -40.4502 H         1 UNK         0.2931 
    111 H111       21.2027  -33.0654  -42.1439 H         1 UNK         0.0412 
    112 H112       20.1968  -36.6468  -41.8194 H         1 UNK         0.3472 
    113 H113       19.4564  -35.2975  -42.6357 H         1 UNK         0.3472 
    114 H114       18.4933  -32.8248  -40.7448 H         1 UNK         0.0970 
    115 H115       18.6296  -33.5309  -42.3199 H         1 UNK         0.0970 
    116 H116       19.7628  -32.2766  -44.4337 H         1 UNK         0.0612 
    117 H117       18.0250  -32.2550  -44.2695 H         1 UNK         0.0612 
@<TRIPOS>BOND
     1    1    2 1    
     2    1   62 1    
     3    1   63 1    
     4    1   64 1    
     5    2    3 2    
     6    2    4 am   BACKBONE|DICT|INTERRES
     7    4    5 1    
     8    4   65 1    
     9    5    6 1    
    10    5   25 1    
    11    5   66 1    
    12    6    7 1    
    13    6   67 1    
    14    6   68 1    
    15    7    8 1    
    16    8    9 1    
    17    8   69 1    
    18    8   70 1    
    19    9   10 ar   
    20    9   14 ar   
    21   10   11 ar   
    22   10   71 1    
    23   11   12 ar   
    24   11   61 1    
    25   12   13 ar   
    26   12   72 1    
    27   13   14 ar   
    28   13   15 1    
    29   14   73 1    
    30   15   16 1    
    31   15   74 1    
    32   15   75 1    
    33   16   17 1    
    34   17   18 1    
    35   17   76 1    
    36   17   77 1    
    37   18   19 1    
    38   18   27 1    
    39   18   78 1    
    40   19   20 am   BACKBONE|DICT|INTERRES
    41   19   79 1    
    42   20   21 2    
    43   20   22 1    
    44   22   23 1    
    45   22   24 1    
    46   22   80 1    
    47   23   81 1    
    48   23   82 1    
    49   23   83 1    
    50   24   25 am   BACKBONE|DICT|INTERRES
    51   24   84 1    
    52   25   26 2    
    53   27   28 2    
    54   27   29 am   BACKBONE|DICT|INTERRES
    55   29   30 1    
    56   29   85 1    
    57   30   31 1    
    58   30   32 1    
    59   30   86 1    
    60   31   87 1    
    61   31   88 1    
    62   31   89 1    
    63   32   33 2    
    64   32   34 am   BACKBONE|DICT|INTERRES
    65   34   35 1    
    66   34   90 1    
    67   35   36 1    
    68   35   37 1    
    69   35   91 1    
    70   36   92 1    
    71   36   93 1    
    72   36   94 1    
    73   37   38 2    
    74   37   39 am   BACKBONE|DICT|INTERRES
    75   39   40 1    
    76   39   95 1    
    77   40   41 1    
    78   40   42 1    
    79   40   96 1    
    80   41   97 1    
    81   41   98 1    
    82   41   99 1    
    83   42   43 2    
    84   42   44 am   BACKBONE|DICT|INTERRES
    85   44   45 1    
    86   44  100 1    
    87   45   46 1    
    88   45   47 1    
    89   45  101 1    
    90   46  102 1    
    91   46  103 1    
    92   46  104 1    
    93   47   48 2    
    94   47   49 am   BACKBONE|DICT|INTERRES
    95   49   50 1    
    96   49  105 1    
    97   50   51 1    
    98   50   52 1    
    99   50  106 1    
   100   51  107 1    
   101   51  108 1    
   102   51  109 1    
   103   52   53 2    
   104   52   54 am   BACKBONE|DICT|INTERRES
   105   54   55 1    
   106   54  110 1    
   107   55   56 1    
   108   55   59 1    
   109   55  111 1    
   110   56   57 am   BACKBONE|DICT|INTERRES
   111   56   58 2    
   112   57  112 1    
   113   57  113 1    
   114   59   60 1    
   115   59  114 1    
   116   59  115 1    
   117   60   61 1    
   118   61  116 1    
   119   61  117 1    
@<TRIPOS>SUBSTRUCTURE
     1 UNK         1 GROUP             0       ****    0 ROOT    
