@<TRIPOS>MOLECULE
3R8
117   119    1
SMALL
USER_CHARGES


@<TRIPOS>ATOM
      1 CA         21.2295  -25.3313  -49.5022 C.3       0 UNK        -0.2013 
      2 C          21.3642  -26.2408  -48.2900 C.2       0 UNK         0.4866 
      3 O          22.3514  -26.9673  -48.1759 O.2       0 UNK        -0.5176 
      4 N          20.3815  -26.2065  -47.3853 N.am      1 UNK        -0.4884 
      5 CA         20.3428  -26.9825  -46.1487 C.3       1 UNK         0.0853 
      6 C6         19.7943  -28.4117  -46.3908 C.3       10 UNK        -0.0849 
      7 S7         20.0144  -29.5117  -44.9545 S.3       10 UNK        -0.2776 
      8 C8         18.2996  -29.6940  -44.3892 C.3       10 UNK         0.0316 
      9 C9         18.2358  -30.5553  -43.1401 C.ar      10 UNK        -0.0863 
     10 C10        18.0169  -31.9321  -43.2400 C.ar      10 UNK        -0.1009 
     11 C11        17.9485  -32.7219  -42.0886 C.ar      10 UNK        -0.0712 
     12 C12        18.0855  -32.1225  -40.8324 C.ar      10 UNK        -0.0894 
     13 C13        18.3042  -30.7463  -40.7190 C.ar      10 UNK        -0.0745 
     14 C14        18.3911  -29.9712  -41.8807 C.ar      10 UNK        -0.0972 
     15 C15        18.4829  -30.1124  -39.3444 C.3       10 UNK         0.0209 
     16 S16        17.4561  -28.6201  -39.1296 S.3       10 UNK        -0.2568 
     17 C17        18.6177  -27.5052  -38.2718 C.3       10 UNK        -0.0983 
     18 CA         19.7349  -26.9515  -39.1940 C.3       3 UNK         0.0876 
     19 N          19.2074  -26.3603  -40.4339 N.am      3 UNK        -0.4424 
     20 C          19.9624  -26.0199  -41.4846 C.2       2 UNK         0.4918 
     21 O          21.1938  -26.0396  -41.4767 O.2       2 UNK        -0.4875 
     22 CA         19.2427  -25.5469  -42.7459 C.3       2 UNK         0.0481 
     23 CB         19.3000  -24.0100  -42.8457 C.3       2 UNK        -0.1831 
     24 N          19.9154  -26.1774  -43.8774 N.am      2 UNK        -0.4498 
     25 C          19.4913  -26.1893  -45.1444 C.2       1 UNK         0.5027 
     26 O          18.4685  -25.6208  -45.5376 O.2       1 UNK        -0.4969 
     27 C          20.6773  -26.0149  -38.4075 C.2       3 UNK         0.5005 
     28 O          21.5280  -26.5026  -37.6622 O.2       3 UNK        -0.5279 
     29 N          20.5346  -24.6965  -38.6081 N.am      4 UNK        -0.4463 
     30 CA         21.4353  -23.6684  -38.0816 C.3       4 UNK         0.0283 
     31 CB         20.7590  -22.2938  -38.2109 C.3       4 UNK        -0.1875 
     32 C          22.8148  -23.6526  -38.7698 C.2       4 UNK         0.4949 
     33 O          23.7694  -23.1550  -38.1723 O.2       4 UNK        -0.5039 
     34 N          22.8987  -24.1781  -40.0004 N.am      5 UNK        -0.4663 
     35 CA         24.1333  -24.3064  -40.7707 C.3       5 UNK         0.0242 
     36 CB         23.8627  -23.9707  -42.2497 C.3       5 UNK        -0.1982 
     37 C          24.7075  -25.7185  -40.5978 C.2       5 UNK         0.5017 
     38 O          25.7738  -25.8636  -39.9989 O.2       5 UNK        -0.5012 
     39 N          23.9857  -26.7263  -41.1044 N.am      6 UNK        -0.4439 
     40 CA         24.3299  -28.1465  -41.0668 C.3       6 UNK         0.0297 
     41 CB         25.6213  -28.4337  -41.8622 C.3       6 UNK        -0.2006 
     42 C          23.1743  -28.9540  -41.6673 C.2       6 UNK         0.4892 
     43 O          22.5293  -28.4880  -42.6092 O.2       6 UNK        -0.5089 
     44 N          22.9730  -30.1688  -41.1444 N.am      7 UNK        -0.4243 
     45 CA         22.0640  -31.1655  -41.7046 C.3       7 UNK         0.0196 
     46 CB         21.6360  -32.1433  -40.5964 C.3       7 UNK        -0.2007 
     47 C          22.7763  -31.9048  -42.8457 C.2       7 UNK         0.5020 
     48 O          23.7125  -32.6620  -42.5834 O.2       7 UNK        -0.5147 
     49 N          22.3436  -31.6621  -44.0872 N.am      8 UNK        -0.4734 
     50 CA         22.9062  -32.2832  -45.2914 C.3       8 UNK         0.0238 
     51 CB         22.6892  -31.3448  -46.4911 C.3       8 UNK        -0.1912 
     52 C          22.3242  -33.6779  -45.5876 C.2       8 UNK         0.5038 
     53 O          22.8413  -34.3582  -46.4755 O.2       8 UNK        -0.5046 
     54 N          21.2571  -34.0699  -44.8777 N.am      9 UNK        -0.4200 
     55 CA         20.5923  -35.3737  -45.0054 C.3       9 UNK         0.0839 
     56 C          21.4806  -36.5815  -44.5871 C.2       9 UNK         0.5513 
     57 N          21.1765  -37.7713  -45.0887 N.am      9 UNK        -0.7519 
     58 O          22.4177  -36.4613  -43.8002 O.2       9 UNK        -0.4960 
     59 C59        19.2095  -35.3797  -44.3010 C.3       10 UNK        -0.0876 
     60 S60        19.2738  -35.1163  -42.4923 S.3       10 UNK        -0.2414 
     61 C61        17.7178  -34.2213  -42.1921 C.3       10 UNK         0.0169 
     62 H62        21.2299  -25.9233  -50.4171 H         1 UNK         0.0903 
     63 H63        20.3082  -24.7495  -49.4756 H         1 UNK         0.0903 
     64 H64        22.0680  -24.6367  -49.5453 H         1 UNK         0.0903 
     65 H65        19.5981  -25.5728  -47.4937 H         1 UNK         0.3096 
     66 H66        21.3597  -27.0532  -45.7537 H         1 UNK         0.1121 
     67 H67        18.7461  -28.3830  -46.6947 H         1 UNK         0.0849 
     68 H68        20.3289  -28.8728  -47.2227 H         1 UNK         0.0849 
     69 H69        17.6972  -30.1358  -45.1846 H         1 UNK         0.0865 
     70 H70        17.8723  -28.7105  -44.1865 H         1 UNK         0.0865 
     71 H71        17.9021  -32.3875  -44.2136 H         1 UNK         0.1346 
     72 H72        18.0329  -32.7332  -39.9414 H         1 UNK         0.1412 
     73 H73        18.5770  -28.9090  -41.8050 H         1 UNK         0.1426 
     74 H74        19.5382  -29.8776  -39.2118 H         1 UNK         0.0716 
     75 H75        18.2275  -30.8192  -38.5535 H         1 UNK         0.0716 
     76 H76        19.0480  -28.0418  -37.4237 H         1 UNK         0.0695 
     77 H77        18.0349  -26.6850  -37.8482 H         1 UNK         0.0695 
     78 H78        20.3621  -27.7898  -39.5033 H         1 UNK         0.0983 
     79 H79        18.2010  -26.3085  -40.5057 H         1 UNK         0.3095 
     80 H80        18.2034  -25.8805  -42.7197 H         1 UNK         0.0454 
     81 H81        18.7619  -23.6418  -43.7187 H         1 UNK         0.0851 
     82 H82        20.3276  -23.6493  -42.9107 H         1 UNK         0.0851 
     83 H83        18.8447  -23.5434  -41.9714 H         1 UNK         0.0851 
     84 H84        20.7534  -26.6902  -43.6233 H         1 UNK         0.2976 
     85 H85        19.7966  -24.3866  -39.2234 H         1 UNK         0.3116 
     86 H86        21.5997  -23.8693  -37.0207 H         1 UNK         0.0646 
     87 H87        21.3921  -21.5077  -37.7967 H         1 UNK         0.0847 
     88 H88        19.8132  -22.2625  -37.6695 H         1 UNK         0.0847 
     89 H89        20.5610  -22.0360  -39.2521 H         1 UNK         0.0847 
     90 H90        22.0841  -24.6364  -40.3937 H         1 UNK         0.3040 
     91 H91        24.8803  -23.5983  -40.4042 H         1 UNK         0.1015 
     92 H92        23.5377  -22.9363  -42.3624 H         1 UNK         0.0786 
     93 H93        23.0944  -24.6067  -42.6897 H         1 UNK         0.0786 
     94 H94        24.7673  -24.0918  -42.8471 H         1 UNK         0.0786 
     95 H95        23.0796  -26.5277  -41.5259 H         1 UNK         0.3172 
     96 H96        24.4664  -28.4391  -40.0238 H         1 UNK         0.0595 
     97 H97        25.5447  -28.0768  -42.8901 H         1 UNK         0.0839 
     98 H98        25.8262  -29.5044  -41.9050 H         1 UNK         0.0839 
     99 H99        26.4938  -27.9644  -41.4088 H         1 UNK         0.0839 
    100 H100       23.5848  -30.4891  -40.4074 H         1 UNK         0.2998 
    101 H101       21.1700  -30.6713  -42.0910 H         1 UNK         0.0822 
    102 H102       20.9508  -32.8955  -40.9889 H         1 UNK         0.0787 
    103 H103       22.4870  -32.6726  -40.1659 H         1 UNK         0.0787 
    104 H104       21.1220  -31.6272  -39.7867 H         1 UNK         0.0787 
    105 H105       21.5947  -30.9925  -44.2278 H         1 UNK         0.3055 
    106 H106       23.9828  -32.4079  -45.1534 H         1 UNK         0.1106 
    107 H107       23.2064  -31.7184  -47.3758 H         1 UNK         0.0828 
    108 H108       21.6336  -31.2563  -46.7493 H         1 UNK         0.0828 
    109 H109       23.0723  -30.3437  -46.2916 H         1 UNK         0.0828 
    110 H110       20.9208  -33.4674  -44.1421 H         1 UNK         0.2931 
    111 H111       20.3967  -35.4990  -46.0725 H         1 UNK         0.0412 
    112 H112       20.4094  -37.8870  -45.7330 H         1 UNK         0.3472 
    113 H113       21.7312  -38.5707  -44.8237 H         1 UNK         0.3472 
    114 H114       18.5808  -34.6131  -44.7547 H         1 UNK         0.0970 
    115 H115       18.6924  -36.3224  -44.4886 H         1 UNK         0.0970 
    116 H116       16.9910  -34.4418  -42.9752 H         1 UNK         0.0612 
    117 H117       17.2800  -34.5950  -41.2652 H         1 UNK         0.0612 
@<TRIPOS>BOND
     1    1    2 1    
     2    1   62 1    
     3    1   63 1    
     4    1   64 1    
     5    2    3 2    
     6    2    4 am   BACKBONE|DICT|INTERRES
     7    4    5 1    
     8    4   65 1    
     9    5    6 1    
    10    5   25 1    
    11    5   66 1    
    12    6    7 1    
    13    6   67 1    
    14    6   68 1    
    15    7    8 1    
    16    8    9 1    
    17    8   69 1    
    18    8   70 1    
    19    9   10 ar   
    20    9   14 ar   
    21   10   11 ar   
    22   10   71 1    
    23   11   12 ar   
    24   11   61 1    
    25   12   13 ar   
    26   12   72 1    
    27   13   14 ar   
    28   13   15 1    
    29   14   73 1    
    30   15   16 1    
    31   15   74 1    
    32   15   75 1    
    33   16   17 1    
    34   17   18 1    
    35   17   76 1    
    36   17   77 1    
    37   18   19 1    
    38   18   27 1    
    39   18   78 1    
    40   19   20 am   BACKBONE|DICT|INTERRES
    41   19   79 1    
    42   20   21 2    
    43   20   22 1    
    44   22   23 1    
    45   22   24 1    
    46   22   80 1    
    47   23   81 1    
    48   23   82 1    
    49   23   83 1    
    50   24   25 am   BACKBONE|DICT|INTERRES
    51   24   84 1    
    52   25   26 2    
    53   27   28 2    
    54   27   29 am   BACKBONE|DICT|INTERRES
    55   29   30 1    
    56   29   85 1    
    57   30   31 1    
    58   30   32 1    
    59   30   86 1    
    60   31   87 1    
    61   31   88 1    
    62   31   89 1    
    63   32   33 2    
    64   32   34 am   BACKBONE|DICT|INTERRES
    65   34   35 1    
    66   34   90 1    
    67   35   36 1    
    68   35   37 1    
    69   35   91 1    
    70   36   92 1    
    71   36   93 1    
    72   36   94 1    
    73   37   38 2    
    74   37   39 am   BACKBONE|DICT|INTERRES
    75   39   40 1    
    76   39   95 1    
    77   40   41 1    
    78   40   42 1    
    79   40   96 1    
    80   41   97 1    
    81   41   98 1    
    82   41   99 1    
    83   42   43 2    
    84   42   44 am   BACKBONE|DICT|INTERRES
    85   44   45 1    
    86   44  100 1    
    87   45   46 1    
    88   45   47 1    
    89   45  101 1    
    90   46  102 1    
    91   46  103 1    
    92   46  104 1    
    93   47   48 2    
    94   47   49 am   BACKBONE|DICT|INTERRES
    95   49   50 1    
    96   49  105 1    
    97   50   51 1    
    98   50   52 1    
    99   50  106 1    
   100   51  107 1    
   101   51  108 1    
   102   51  109 1    
   103   52   53 2    
   104   52   54 am   BACKBONE|DICT|INTERRES
   105   54   55 1    
   106   54  110 1    
   107   55   56 1    
   108   55   59 1    
   109   55  111 1    
   110   56   57 am   BACKBONE|DICT|INTERRES
   111   56   58 2    
   112   57  112 1    
   113   57  113 1    
   114   59   60 1    
   115   59  114 1    
   116   59  115 1    
   117   60   61 1    
   118   61  116 1    
   119   61  117 1    
@<TRIPOS>SUBSTRUCTURE
     1 UNK         1 GROUP             0       ****    0 ROOT    
