@<TRIPOS>MOLECULE
3R8
117   119    1
SMALL
USER_CHARGES


@<TRIPOS>ATOM
      1 CA         17.0840  -26.2839  -49.7056 C.3       0 UNK        -0.2013 
      2 C          18.1479  -25.6545  -48.8185 C.2       0 UNK         0.4866 
      3 O          18.3133  -24.4340  -48.8312 O.2       0 UNK        -0.5176 
      4 N          18.8769  -26.4774  -48.0555 N.am      1 UNK        -0.4884 
      5 CA         19.8852  -26.0473  -47.0822 C.3       1 UNK         0.0853 
      6 C6         20.8607  -27.2022  -46.7263 C.3       10 UNK        -0.0849 
      7 S7         20.0439  -28.7179  -46.1067 S.3       10 UNK        -0.2776 
      8 C8         20.3921  -28.5765  -44.3287 C.3       10 UNK         0.0316 
      9 C9         19.4504  -29.4335  -43.5021 C.ar      10 UNK        -0.0863 
     10 C10        19.7478  -30.7754  -43.2531 C.ar      10 UNK        -0.1009 
     11 C11        18.9214  -31.5441  -42.4280 C.ar      10 UNK        -0.0712 
     12 C12        17.8012  -30.9525  -41.8342 C.ar      10 UNK        -0.0894 
     13 C13        17.4938  -29.6090  -42.0792 C.ar      10 UNK        -0.0745 
     14 C14        18.3029  -28.8667  -42.9427 C.ar      10 UNK        -0.0972 
     15 C15        16.3039  -28.9537  -41.3932 C.3       10 UNK         0.0209 
     16 S16        16.8155  -28.0678  -39.8807 S.3       10 UNK        -0.2568 
     17 C17        17.1074  -26.3651  -40.4783 C.3       10 UNK        -0.0983 
     18 CA         18.5848  -26.0631  -40.8545 C.3       3 UNK         0.0876 
     19 N          18.6463  -25.1061  -41.9728 N.am      3 UNK        -0.4424 
     20 C          19.7087  -24.8772  -42.7547 C.2       2 UNK         0.4918 
     21 O          20.8181  -25.3777  -42.5735 O.2       2 UNK        -0.4875 
     22 CA         19.5167  -23.8873  -43.9127 C.3       2 UNK         0.0481 
     23 CB         20.3310  -22.6063  -43.6681 C.3       2 UNK        -0.1831 
     24 N          19.9329  -24.4974  -45.1762 N.am      2 UNK        -0.4498 
     25 C          19.2258  -25.4312  -45.8274 C.2       1 UNK         0.5027 
     26 O          18.1133  -25.8199  -45.4587 O.2       1 UNK        -0.4969 
     27 C          19.4618  -25.6808  -39.6360 C.2       3 UNK         0.5005 
     28 O          19.5866  -26.4721  -38.7001 O.2       3 UNK        -0.5279 
     29 N          20.0942  -24.4982  -39.6769 N.am      4 UNK        -0.4463 
     30 CA         21.1844  -24.0993  -38.7838 C.3       4 UNK         0.0283 
     31 CB         21.4833  -22.6052  -38.9867 C.3       4 UNK        -0.1875 
     32 C          22.4638  -24.9373  -38.9888 C.2       4 UNK         0.4949 
     33 O          23.2429  -25.0737  -38.0451 O.2       4 UNK        -0.5039 
     34 N          22.6533  -25.4897  -40.1957 N.am      5 UNK        -0.4663 
     35 CA         23.6958  -26.4600  -40.5192 C.3       5 UNK         0.0242 
     36 CB         24.3398  -26.0760  -41.8619 C.3       5 UNK        -0.1982 
     37 C          23.0519  -27.8492  -40.6167 C.2       5 UNK         0.5017 
     38 O          21.9740  -27.9769  -41.1998 O.2       5 UNK        -0.5012 
     39 N          23.7251  -28.8656  -40.0627 N.am      6 UNK        -0.4439 
     40 CA         23.2665  -30.2571  -40.1032 C.3       6 UNK         0.0297 
     41 CB         23.9716  -31.0663  -39.0039 C.3       6 UNK        -0.2006 
     42 C          23.4713  -30.8988  -41.4860 C.2       6 UNK         0.4892 
     43 O          22.5879  -31.6137  -41.9526 O.2       6 UNK        -0.5089 
     44 N          24.6213  -30.6199  -42.1220 N.am      7 UNK        -0.4243 
     45 CA         25.0134  -31.0537  -43.4701 C.3       7 UNK         0.0196 
     46 CB         24.3051  -30.1729  -44.5245 C.3       7 UNK        -0.2007 
     47 C          24.8097  -32.5685  -43.6893 C.2       7 UNK         0.5020 
     48 O          25.5511  -33.3662  -43.1140 O.2       7 UNK        -0.5147 
     49 N          23.7911  -32.9337  -44.4803 N.am      8 UNK        -0.4734 
     50 CA         23.3910  -34.3061  -44.8028 C.3       8 UNK         0.0238 
     51 CB         22.2618  -34.2616  -45.8457 C.3       8 UNK        -0.1912 
     52 C          22.9658  -35.1641  -43.5956 C.2       8 UNK         0.5038 
     53 O          23.0781  -36.3879  -43.6823 O.2       8 UNK        -0.5046 
     54 N          22.5000  -34.5321  -42.5098 N.am      9 UNK        -0.4200 
     55 CA         22.1769  -35.1846  -41.2302 C.3       9 UNK         0.0839 
     56 C          23.2017  -34.8588  -40.1054 C.2       9 UNK         0.5513 
     57 N          24.3716  -34.3067  -40.4111 N.am      9 UNK        -0.7519 
     58 O          22.9539  -35.1451  -38.9369 O.2       9 UNK        -0.4960 
     59 C59        20.6888  -34.9895  -40.8196 C.3       10 UNK        -0.0876 
     60 S60        20.1560  -33.2532  -40.6286 S.3       10 UNK        -0.2414 
     61 C61        19.2424  -33.0110  -42.1833 C.3       10 UNK         0.0169 
     62 H62        16.1003  -25.8948  -49.4445 H         1 UNK         0.0903 
     63 H63        17.2783  -26.0467  -50.7512 H         1 UNK         0.0903 
     64 H64        17.0575  -27.3687  -49.6033 H         1 UNK         0.0903 
     65 H65        18.6761  -27.4680  -48.0486 H         1 UNK         0.3096 
     66 H66        20.4739  -25.2574  -47.5551 H         1 UNK         0.1121 
     67 H67        21.4221  -27.4802  -47.6197 H         1 UNK         0.0849 
     68 H68        21.6147  -26.8662  -46.0114 H         1 UNK         0.0849 
     69 H69        21.4267  -28.8543  -44.1274 H         1 UNK         0.0865 
     70 H70        20.3005  -27.5372  -44.0162 H         1 UNK         0.0865 
     71 H71        20.6329  -31.2176  -43.6890 H         1 UNK         0.1346 
     72 H72        17.1764  -31.5371  -41.1727 H         1 UNK         0.1412 
     73 H73        18.0635  -27.8320  -43.1474 H         1 UNK         0.1426 
     74 H74        15.7897  -28.2816  -42.0813 H         1 UNK         0.0716 
     75 H75        15.5726  -29.7146  -41.1165 H         1 UNK         0.0716 
     76 H76        16.7507  -25.6657  -39.7197 H         1 UNK         0.0695 
     77 H77        16.4538  -26.2063  -41.3372 H         1 UNK         0.0695 
     78 H78        19.0414  -26.9833  -41.2204 H         1 UNK         0.0983 
     79 H79        17.7836  -24.6261  -42.1870 H         1 UNK         0.3095 
     80 H80        18.4622  -23.6121  -43.9860 H         1 UNK         0.0454 
     81 H81        21.3991  -22.8128  -43.5853 H         1 UNK         0.0851 
     82 H82        20.1906  -21.8869  -44.4750 H         1 UNK         0.0851 
     83 H83        20.0220  -22.1167  -42.7437 H         1 UNK         0.0851 
     84 H84        20.8535  -24.2514  -45.5107 H         1 UNK         0.2976 
     85 H85        19.9220  -23.9041  -40.4740 H         1 UNK         0.3116 
     86 H86        20.8516  -24.2473  -37.7542 H         1 UNK         0.0646 
     87 H87        20.6060  -21.9917  -38.7810 H         1 UNK         0.0847 
     88 H88        22.2740  -22.2721  -38.3129 H         1 UNK         0.0847 
     89 H89        21.8133  -22.3926  -40.0045 H         1 UNK         0.0847 
     90 H90        21.9321  -25.3913  -40.9050 H         1 UNK         0.3040 
     91 H91        24.4694  -26.4676  -39.7481 H         1 UNK         0.1015 
     92 H92        24.7946  -25.0865  -41.8137 H         1 UNK         0.0786 
     93 H93        23.6086  -26.0686  -42.6720 H         1 UNK         0.0786 
     94 H94        25.1242  -26.7825  -42.1364 H         1 UNK         0.0786 
     95 H95        24.6010  -28.6823  -39.5942 H         1 UNK         0.3172 
     96 H96        22.1951  -30.2714  -39.8887 H         1 UNK         0.0595 
     97 H97        25.0423  -31.1633  -39.1873 H         1 UNK         0.0839 
     98 H98        23.5556  -32.0719  -38.9436 H         1 UNK         0.0839 
     99 H99        23.8365  -30.6088  -38.0237 H         1 UNK         0.0839 
    100 H100       25.2977  -30.0507  -41.6347 H         1 UNK         0.2998 
    101 H101       26.0863  -30.8755  -43.5567 H         1 UNK         0.0822 
    102 H102       24.6168  -30.4383  -45.5358 H         1 UNK         0.0787 
    103 H103       23.2205  -30.2651  -44.4740 H         1 UNK         0.0787 
    104 H104       24.5493  -29.1200  -44.3816 H         1 UNK         0.0787 
    105 H105       23.2215  -32.1977  -44.8713 H         1 UNK         0.3055 
    106 H106       24.2557  -34.7993  -45.2521 H         1 UNK         0.1106 
    107 H107       22.5786  -33.7499  -46.7547 H         1 UNK         0.0828 
    108 H108       21.3777  -33.7510  -45.4614 H         1 UNK         0.0828 
    109 H109       21.9562  -35.2684  -46.1345 H         1 UNK         0.0828 
    110 H110       22.4731  -33.5153  -42.4931 H         1 UNK         0.2931 
    111 H111       22.2936  -36.2624  -41.3527 H         1 UNK         0.0412 
    112 H112       25.0348  -34.1281  -39.6746 H         1 UNK         0.3472 
    113 H113       24.6131  -34.0876  -41.3699 H         1 UNK         0.3472 
    114 H114       20.4848  -35.5091  -39.8818 H         1 UNK         0.0970 
    115 H115       20.0486  -35.4786  -41.5551 H         1 UNK         0.0970 
    116 H116       19.8325  -33.4034  -43.0131 H         1 UNK         0.0612 
    117 H117       18.3212  -33.5947  -42.1552 H         1 UNK         0.0612 
@<TRIPOS>BOND
     1    1    2 1    
     2    1   62 1    
     3    1   63 1    
     4    1   64 1    
     5    2    3 2    
     6    2    4 am   BACKBONE|DICT|INTERRES
     7    4    5 1    
     8    4   65 1    
     9    5    6 1    
    10    5   25 1    
    11    5   66 1    
    12    6    7 1    
    13    6   67 1    
    14    6   68 1    
    15    7    8 1    
    16    8    9 1    
    17    8   69 1    
    18    8   70 1    
    19    9   10 ar   
    20    9   14 ar   
    21   10   11 ar   
    22   10   71 1    
    23   11   12 ar   
    24   11   61 1    
    25   12   13 ar   
    26   12   72 1    
    27   13   14 ar   
    28   13   15 1    
    29   14   73 1    
    30   15   16 1    
    31   15   74 1    
    32   15   75 1    
    33   16   17 1    
    34   17   18 1    
    35   17   76 1    
    36   17   77 1    
    37   18   19 1    
    38   18   27 1    
    39   18   78 1    
    40   19   20 am   BACKBONE|DICT|INTERRES
    41   19   79 1    
    42   20   21 2    
    43   20   22 1    
    44   22   23 1    
    45   22   24 1    
    46   22   80 1    
    47   23   81 1    
    48   23   82 1    
    49   23   83 1    
    50   24   25 am   BACKBONE|DICT|INTERRES
    51   24   84 1    
    52   25   26 2    
    53   27   28 2    
    54   27   29 am   BACKBONE|DICT|INTERRES
    55   29   30 1    
    56   29   85 1    
    57   30   31 1    
    58   30   32 1    
    59   30   86 1    
    60   31   87 1    
    61   31   88 1    
    62   31   89 1    
    63   32   33 2    
    64   32   34 am   BACKBONE|DICT|INTERRES
    65   34   35 1    
    66   34   90 1    
    67   35   36 1    
    68   35   37 1    
    69   35   91 1    
    70   36   92 1    
    71   36   93 1    
    72   36   94 1    
    73   37   38 2    
    74   37   39 am   BACKBONE|DICT|INTERRES
    75   39   40 1    
    76   39   95 1    
    77   40   41 1    
    78   40   42 1    
    79   40   96 1    
    80   41   97 1    
    81   41   98 1    
    82   41   99 1    
    83   42   43 2    
    84   42   44 am   BACKBONE|DICT|INTERRES
    85   44   45 1    
    86   44  100 1    
    87   45   46 1    
    88   45   47 1    
    89   45  101 1    
    90   46  102 1    
    91   46  103 1    
    92   46  104 1    
    93   47   48 2    
    94   47   49 am   BACKBONE|DICT|INTERRES
    95   49   50 1    
    96   49  105 1    
    97   50   51 1    
    98   50   52 1    
    99   50  106 1    
   100   51  107 1    
   101   51  108 1    
   102   51  109 1    
   103   52   53 2    
   104   52   54 am   BACKBONE|DICT|INTERRES
   105   54   55 1    
   106   54  110 1    
   107   55   56 1    
   108   55   59 1    
   109   55  111 1    
   110   56   57 am   BACKBONE|DICT|INTERRES
   111   56   58 2    
   112   57  112 1    
   113   57  113 1    
   114   59   60 1    
   115   59  114 1    
   116   59  115 1    
   117   60   61 1    
   118   61  116 1    
   119   61  117 1    
@<TRIPOS>SUBSTRUCTURE
     1 UNK         1 GROUP             0       ****    0 ROOT    
