@<TRIPOS>MOLECULE
3R8
117   119    1
SMALL
USER_CHARGES


@<TRIPOS>ATOM
      1 CA         14.7944  -21.8252  -47.2391 C.3       0 UNK        -0.2013 
      2 C          15.9110  -22.3863  -46.3711 C.2       0 UNK         0.4866 
      3 O          16.6940  -21.6195  -45.8089 O.2       0 UNK        -0.5176 
      4 N          15.9973  -23.7177  -46.2653 N.am      1 UNK        -0.4884 
      5 CA         16.9770  -24.4260  -45.4364 C.3       1 UNK         0.0853 
      6 C6         17.0145  -25.9417  -45.7526 C.3       10 UNK        -0.0849 
      7 S7         17.5626  -26.3595  -47.4414 S.3       10 UNK        -0.2776 
      8 C8         19.1941  -27.1424  -47.1401 C.3       10 UNK         0.0316 
      9 C9         19.2195  -28.3661  -46.2128 C.ar      10 UNK        -0.0863 
     10 C10        20.4616  -28.8348  -45.7709 C.ar      10 UNK        -0.1009 
     11 C11        20.5609  -29.9160  -44.8875 C.ar      10 UNK        -0.0712 
     12 C12        19.3871  -30.5370  -44.4440 C.ar      10 UNK        -0.0894 
     13 C13        18.1365  -30.0749  -44.8612 C.ar      10 UNK        -0.0745 
     14 C14        18.0607  -29.0183  -45.7710 C.ar      10 UNK        -0.0972 
     15 C15        16.8597  -30.6804  -44.2969 C.3       10 UNK         0.0209 
     16 S16        16.1272  -29.6045  -43.0161 S.3       10 UNK        -0.2568 
     17 C17        17.2758  -29.8364  -41.6149 C.3       10 UNK        -0.0983 
     18 CA         18.3787  -28.7467  -41.5480 C.3       3 UNK         0.0876 
     19 N          17.8317  -27.3884  -41.4051 N.am      3 UNK        -0.4424 
     20 C          18.4498  -26.2766  -41.8213 C.2       2 UNK         0.4918 
     21 O          19.5977  -26.2654  -42.2766 O.2       2 UNK        -0.4875 
     22 CA         17.6669  -24.9610  -41.7686 C.3       2 UNK         0.0481 
     23 CB         18.3190  -23.9648  -40.7967 C.3       2 UNK        -0.1831 
     24 N          17.7338  -24.4457  -43.1298 N.am      2 UNK        -0.4498 
     25 C          16.6785  -24.2738  -43.9310 C.2       1 UNK         0.5027 
     26 O          15.5182  -24.1390  -43.5325 O.2       1 UNK        -0.4969 
     27 C          19.4758  -29.0629  -40.5050 C.2       3 UNK         0.5005 
     28 O          19.3986  -30.0701  -39.7990 O.2       3 UNK        -0.5279 
     29 N          20.4836  -28.1884  -40.4415 N.am      4 UNK        -0.4463 
     30 CA         21.7234  -28.3362  -39.6826 C.3       4 UNK         0.0283 
     31 CB         21.5485  -27.7404  -38.2738 C.3       4 UNK        -0.1875 
     32 C          22.9108  -27.7080  -40.4372 C.2       4 UNK         0.4949 
     33 O          23.9720  -27.5113  -39.8443 O.2       4 UNK        -0.5039 
     34 N          22.7228  -27.3883  -41.7287 N.am      5 UNK        -0.4663 
     35 CA         23.6986  -26.7034  -42.5837 C.3       5 UNK         0.0242 
     36 CB         22.9992  -26.2634  -43.8799 C.3       5 UNK        -0.1982 
     37 C          24.9549  -27.5348  -42.9001 C.2       5 UNK         0.5017 
     38 O          25.9939  -26.9544  -43.2153 O.2       5 UNK        -0.5012 
     39 N          24.8423  -28.8638  -42.7947 N.am      6 UNK        -0.4439 
     40 CA         25.9316  -29.8275  -42.9361 C.3       6 UNK         0.0297 
     41 CB         25.7232  -30.6558  -44.2176 C.3       6 UNK        -0.2006 
     42 C          26.0104  -30.6869  -41.6648 C.2       6 UNK         0.4892 
     43 O          26.0641  -31.9155  -41.7523 O.2       6 UNK        -0.5089 
     44 N          25.9925  -30.0145  -40.5030 N.am      7 UNK        -0.4243 
     45 CA         26.0246  -30.5691  -39.1461 C.3       7 UNK         0.0196 
     46 CB         27.3871  -31.2375  -38.8508 C.3       7 UNK        -0.2007 
     47 C          24.8138  -31.4798  -38.8826 C.2       7 UNK         0.5020 
     48 O          23.7348  -30.9717  -38.5839 O.2       7 UNK        -0.5147 
     49 N          25.0030  -32.7986  -39.0045 N.am      8 UNK        -0.4734 
     50 CA         23.9368  -33.7961  -38.8956 C.3       8 UNK         0.0238 
     51 CB         24.5632  -35.1647  -38.5810 C.3       8 UNK        -0.1912 
     52 C          23.0572  -33.8867  -40.1570 C.2       8 UNK         0.5038 
     53 O          21.9338  -34.3824  -40.0548 O.2       8 UNK        -0.5046 
     54 N          23.5782  -33.4343  -41.3087 N.am      9 UNK        -0.4200 
     55 CA         22.9707  -33.5504  -42.6458 C.3       9 UNK         0.0839 
     56 C          22.7922  -35.0289  -43.1173 C.2       9 UNK         0.5513 
     57 N          22.0941  -35.2672  -44.2204 N.am      9 UNK        -0.7519 
     58 O          23.3280  -35.9687  -42.5322 O.2       9 UNK        -0.4960 
     59 C59        21.6896  -32.6754  -42.8017 C.3       10 UNK        -0.0876 
     60 S60        22.0527  -30.8879  -42.6888 S.3       10 UNK        -0.2414 
     61 C61        21.9456  -30.3905  -44.4444 C.3       10 UNK         0.0169 
     62 H62        14.1889  -22.6140  -47.6853 H         1 UNK         0.0903 
     63 H63        14.1389  -21.1910  -46.6429 H         1 UNK         0.0903 
     64 H64        15.2122  -21.2221  -48.0448 H         1 UNK         0.0903 
     65 H65        15.3257  -24.3022  -46.7425 H         1 UNK         0.3096 
     66 H66        17.9619  -23.9974  -45.6373 H         1 UNK         0.1121 
     67 H67        16.0274  -26.3852  -45.6045 H         1 UNK         0.0849 
     68 H68        17.6708  -26.4506  -45.0447 H         1 UNK         0.0849 
     69 H69        19.6128  -27.4341  -48.1042 H         1 UNK         0.0865 
     70 H70        19.8617  -26.3793  -46.7363 H         1 UNK         0.0865 
     71 H71        21.3624  -28.3468  -46.1176 H         1 UNK         0.1346 
     72 H72        19.4349  -31.3588  -43.7457 H         1 UNK         0.1412 
     73 H73        17.0846  -28.6866  -46.0936 H         1 UNK         0.1426 
     74 H74        17.0435  -31.6745  -43.8863 H         1 UNK         0.0716 
     75 H75        16.1356  -30.8128  -45.1021 H         1 UNK         0.0716 
     76 H76        17.7186  -30.8309  -41.6968 H         1 UNK         0.0695 
     77 H77        16.6932  -29.8414  -40.6921 H         1 UNK         0.0695 
     78 H78        18.8986  -28.7726  -42.5059 H         1 UNK         0.0983 
     79 H79        16.8939  -27.3252  -41.0362 H         1 UNK         0.3095 
     80 H80        16.6373  -25.1536  -41.4595 H         1 UNK         0.0454 
     81 H81        19.3617  -23.7695  -41.0508 H         1 UNK         0.0851 
     82 H82        18.2971  -24.3463  -39.7752 H         1 UNK         0.0851 
     83 H83        17.7916  -23.0109  -40.7991 H         1 UNK         0.0851 
     84 H84        18.6433  -24.5705  -43.5565 H         1 UNK         0.2976 
     85 H85        20.4084  -27.3601  -41.0284 H         1 UNK         0.3116 
     86 H86        21.9475  -29.3996  -39.5892 H         1 UNK         0.0646 
     87 H87        21.3486  -26.6691  -38.3128 H         1 UNK         0.0847 
     88 H88        22.4470  -27.8867  -37.6730 H         1 UNK         0.0847 
     89 H89        20.7260  -28.2177  -37.7411 H         1 UNK         0.0847 
     90 H90        21.8355  -27.6064  -42.1583 H         1 UNK         0.3040 
     91 H91        24.0330  -25.8083  -42.0543 H         1 UNK         0.1015 
     92 H92        22.6294  -27.1162  -44.4480 H         1 UNK         0.0786 
     93 H93        23.6837  -25.7123  -44.5265 H         1 UNK         0.0786 
     94 H94        22.1530  -25.6077  -43.6718 H         1 UNK         0.0786 
     95 H95        23.9497  -29.2425  -42.5043 H         1 UNK         0.3172 
     96 H96        26.8908  -29.3127  -43.0196 H         1 UNK         0.0595 
     97 H97        25.6895  -30.0168  -45.0999 H         1 UNK         0.0839 
     98 H98        24.7969  -31.2276  -44.1837 H         1 UNK         0.0839 
     99 H99        26.5394  -31.3647  -44.3622 H         1 UNK         0.0839 
    100 H100       25.8713  -29.0108  -40.5487 H         1 UNK         0.2998 
    101 H101       25.9216  -29.7220  -38.4655 H         1 UNK         0.0822 
    102 H102       28.1972  -30.5110  -38.9156 H         1 UNK         0.0787 
    103 H103       27.4094  -31.6512  -37.8416 H         1 UNK         0.0787 
    104 H104       27.6194  -32.0461  -39.5442 H         1 UNK         0.0787 
    105 H105       25.9163  -33.1267  -39.2859 H         1 UNK         0.3055 
    106 H106       23.2831  -33.5202  -38.0647 H         1 UNK         0.1106 
    107 H107       23.7924  -35.9273  -38.4597 H         1 UNK         0.0828 
    108 H108       25.2267  -35.4986  -39.3799 H         1 UNK         0.0828 
    109 H109       25.1371  -35.1365  -37.6546 H         1 UNK         0.0828 
    110 H110       24.5107  -33.0334  -41.2946 H         1 UNK         0.2931 
    111 H111       23.7245  -33.1516  -43.3243 H         1 UNK         0.0412 
    112 H112       21.9978  -36.2200  -44.5363 H         1 UNK         0.3472 
    113 H113       21.6775  -34.5218  -44.7546 H         1 UNK         0.3472 
    114 H114       20.9514  -32.9295  -42.0400 H         1 UNK         0.0970 
    115 H115       21.1979  -32.8625  -43.7555 H         1 UNK         0.0970 
    116 H116       22.2669  -31.2119  -45.0858 H         1 UNK         0.0612 
    117 H117       22.6718  -29.5918  -44.5985 H         1 UNK         0.0612 
@<TRIPOS>BOND
     1    1    2 1    
     2    1   62 1    
     3    1   63 1    
     4    1   64 1    
     5    2    3 2    
     6    2    4 am   BACKBONE|DICT|INTERRES
     7    4    5 1    
     8    4   65 1    
     9    5    6 1    
    10    5   25 1    
    11    5   66 1    
    12    6    7 1    
    13    6   67 1    
    14    6   68 1    
    15    7    8 1    
    16    8    9 1    
    17    8   69 1    
    18    8   70 1    
    19    9   10 ar   
    20    9   14 ar   
    21   10   11 ar   
    22   10   71 1    
    23   11   12 ar   
    24   11   61 1    
    25   12   13 ar   
    26   12   72 1    
    27   13   14 ar   
    28   13   15 1    
    29   14   73 1    
    30   15   16 1    
    31   15   74 1    
    32   15   75 1    
    33   16   17 1    
    34   17   18 1    
    35   17   76 1    
    36   17   77 1    
    37   18   19 1    
    38   18   27 1    
    39   18   78 1    
    40   19   20 am   BACKBONE|DICT|INTERRES
    41   19   79 1    
    42   20   21 2    
    43   20   22 1    
    44   22   23 1    
    45   22   24 1    
    46   22   80 1    
    47   23   81 1    
    48   23   82 1    
    49   23   83 1    
    50   24   25 am   BACKBONE|DICT|INTERRES
    51   24   84 1    
    52   25   26 2    
    53   27   28 2    
    54   27   29 am   BACKBONE|DICT|INTERRES
    55   29   30 1    
    56   29   85 1    
    57   30   31 1    
    58   30   32 1    
    59   30   86 1    
    60   31   87 1    
    61   31   88 1    
    62   31   89 1    
    63   32   33 2    
    64   32   34 am   BACKBONE|DICT|INTERRES
    65   34   35 1    
    66   34   90 1    
    67   35   36 1    
    68   35   37 1    
    69   35   91 1    
    70   36   92 1    
    71   36   93 1    
    72   36   94 1    
    73   37   38 2    
    74   37   39 am   BACKBONE|DICT|INTERRES
    75   39   40 1    
    76   39   95 1    
    77   40   41 1    
    78   40   42 1    
    79   40   96 1    
    80   41   97 1    
    81   41   98 1    
    82   41   99 1    
    83   42   43 2    
    84   42   44 am   BACKBONE|DICT|INTERRES
    85   44   45 1    
    86   44  100 1    
    87   45   46 1    
    88   45   47 1    
    89   45  101 1    
    90   46  102 1    
    91   46  103 1    
    92   46  104 1    
    93   47   48 2    
    94   47   49 am   BACKBONE|DICT|INTERRES
    95   49   50 1    
    96   49  105 1    
    97   50   51 1    
    98   50   52 1    
    99   50  106 1    
   100   51  107 1    
   101   51  108 1    
   102   51  109 1    
   103   52   53 2    
   104   52   54 am   BACKBONE|DICT|INTERRES
   105   54   55 1    
   106   54  110 1    
   107   55   56 1    
   108   55   59 1    
   109   55  111 1    
   110   56   57 am   BACKBONE|DICT|INTERRES
   111   56   58 2    
   112   57  112 1    
   113   57  113 1    
   114   59   60 1    
   115   59  114 1    
   116   59  115 1    
   117   60   61 1    
   118   61  116 1    
   119   61  117 1    
@<TRIPOS>SUBSTRUCTURE
     1 UNK         1 GROUP             0       ****    0 ROOT    
