@<TRIPOS>MOLECULE
3R8
117   119    1
SMALL
USER_CHARGES


@<TRIPOS>ATOM
      1 CA         16.4497  -23.1475  -46.9496 C.3       0 UNK        -0.2013 
      2 C          17.2503  -24.3009  -46.3651 C.2       0 UNK         0.4866 
      3 O          18.0805  -24.8873  -47.0605 O.2       0 UNK        -0.5176 
      4 N          17.0238  -24.6252  -45.0859 N.am      1 UNK        -0.4884 
      5 CA         17.6599  -25.7250  -44.3458 C.3       1 UNK         0.0853 
      6 C6         16.7774  -26.1918  -43.1559 C.3       10 UNK        -0.0849 
      7 S7         15.1872  -26.8889  -43.7292 S.3       10 UNK        -0.2776 
      8 C8         15.0613  -28.4591  -42.7954 C.3       10 UNK         0.0316 
      9 C9         16.2376  -29.4183  -42.9807 C.ar      10 UNK        -0.0863 
     10 C10        16.6679  -30.1924  -41.8970 C.ar      10 UNK        -0.1009 
     11 C11        17.7712  -31.0437  -42.0192 C.ar      10 UNK        -0.0712 
     12 C12        18.4401  -31.1270  -43.2430 C.ar      10 UNK        -0.0894 
     13 C13        17.9976  -30.3931  -44.3445 C.ar      10 UNK        -0.0745 
     14 C14        16.8929  -29.5475  -44.2106 C.ar      10 UNK        -0.0972 
     15 C15        18.6972  -30.5204  -45.6865 C.3       10 UNK         0.0209 
     16 S16        19.7444  -29.0760  -46.0302 S.3       10 UNK        -0.2568 
     17 C17        21.3658  -29.5602  -45.3231 C.3       10 UNK        -0.0983 
     18 CA         22.0805  -28.4610  -44.4796 C.3       3 UNK         0.0876 
     19 N          21.6592  -27.1060  -44.8350 N.am      3 UNK        -0.4424 
     20 C          22.1671  -25.9598  -44.3687 C.2       2 UNK         0.4918 
     21 O          23.1715  -25.8920  -43.6623 O.2       2 UNK        -0.4875 
     22 CA         21.3732  -24.6827  -44.7008 C.3       2 UNK         0.0481 
     23 CB         21.9320  -24.0135  -45.9650 C.3       2 UNK        -0.1831 
     24 N          19.9367  -24.9374  -44.8750 N.am      2 UNK        -0.4498 
     25 C          19.1067  -25.3785  -43.9181 C.2       1 UNK         0.5027 
     26 O          19.4653  -25.5416  -42.7511 O.2       1 UNK        -0.4969 
     27 C          21.9962  -28.7228  -42.9620 C.2       3 UNK         0.5005 
     28 O          22.9473  -29.2697  -42.4052 O.2       3 UNK        -0.5279 
     29 N          20.9179  -28.2667  -42.3049 N.am      4 UNK        -0.4463 
     30 CA         20.7425  -28.3720  -40.8524 C.3       4 UNK         0.0283 
     31 CB         19.3147  -27.9696  -40.4545 C.3       4 UNK        -0.1875 
     32 C          21.7649  -27.5302  -40.0737 C.2       4 UNK         0.4949 
     33 O          22.2779  -27.9957  -39.0572 O.2       4 UNK        -0.5039 
     34 N          22.0780  -26.3288  -40.5823 N.am      5 UNK        -0.4663 
     35 CA         23.1161  -25.4466  -40.0357 C.3       5 UNK         0.0242 
     36 CB         23.0085  -24.0551  -40.6796 C.3       5 UNK        -0.1982 
     37 C          24.5340  -26.0257  -40.1985 C.2       5 UNK         0.5017 
     38 O          25.3705  -25.8357  -39.3157 O.2       5 UNK        -0.5012 
     39 N          24.7605  -26.7591  -41.2970 N.am      6 UNK        -0.4439 
     40 CA         25.9726  -27.5391  -41.5658 C.3       6 UNK         0.0297 
     41 CB         26.0846  -27.7752  -43.0817 C.3       6 UNK        -0.2006 
     42 C          26.0331  -28.8785  -40.7982 C.2       6 UNK         0.4892 
     43 O          27.0509  -29.5659  -40.8922 O.2       6 UNK        -0.5089 
     44 N          24.9634  -29.2246  -40.0648 N.am      7 UNK        -0.4243 
     45 CA         24.7640  -30.4435  -39.2730 C.3       7 UNK         0.0196 
     46 CB         25.7947  -30.5421  -38.1273 C.3       7 UNK        -0.2007 
     47 C          24.6715  -31.7280  -40.1210 C.2       7 UNK         0.5020 
     48 O          25.0660  -32.7978  -39.6530 O.2       7 UNK        -0.5147 
     49 N          24.1242  -31.6154  -41.3365 N.am      8 UNK        -0.4734 
     50 CA         23.7723  -32.7374  -42.2050 C.3       8 UNK         0.0238 
     51 CB         24.2091  -32.4078  -43.6419 C.3       8 UNK        -0.1912 
     52 C          22.2530  -32.9425  -42.1443 C.2       8 UNK         0.5038 
     53 O          21.5146  -31.9602  -42.0778 O.2       8 UNK        -0.5046 
     54 N          21.8029  -34.1990  -42.1916 N.am      9 UNK        -0.4200 
     55 CA         20.3850  -34.5809  -42.2015 C.3       9 UNK         0.0839 
     56 C          20.2036  -36.0356  -42.7098 C.2       9 UNK         0.5513 
     57 N          18.9680  -36.4854  -42.8743 N.am      9 UNK        -0.7519 
     58 O          21.1673  -36.7602  -42.9547 O.2       9 UNK        -0.4960 
     59 C59        19.6761  -34.3110  -40.8372 C.3       10 UNK        -0.0876 
     60 S60        17.9907  -33.6347  -41.0445 S.3       10 UNK        -0.2414 
     61 C61        18.2655  -31.8444  -40.8228 C.3       10 UNK         0.0169 
     62 H62        15.8741  -23.4895  -47.8093 H         1 UNK         0.0903 
     63 H63        15.7557  -22.7233  -46.2242 H         1 UNK         0.0903 
     64 H64        17.1203  -22.3555  -47.2816 H         1 UNK         0.0903 
     65 H65        16.3396  -24.0979  -44.5618 H         1 UNK         0.3096 
     66 H66        17.7563  -26.5755  -45.0253 H         1 UNK         0.1121 
     67 H67        16.5766  -25.3637  -42.4740 H         1 UNK         0.0849 
     68 H68        17.2971  -26.9468  -42.5647 H         1 UNK         0.0849 
     69 H69        14.1469  -28.9714  -43.0969 H         1 UNK         0.0865 
     70 H70        14.9403  -28.2129  -41.7392 H         1 UNK         0.0865 
     71 H71        16.1584  -30.1142  -40.9461 H         1 UNK         0.1346 
     72 H72        19.3013  -31.7713  -43.3385 H         1 UNK         0.1412 
     73 H73        16.5560  -28.9778  -45.0658 H         1 UNK         0.1426 
     74 H74        17.9457  -30.5996  -46.4734 H         1 UNK         0.0716 
     75 H75        19.2876  -31.4365  -45.7408 H         1 UNK         0.0716 
     76 H76        22.0020  -29.8174  -46.1712 H         1 UNK         0.0695 
     77 H77        21.2617  -30.4907  -44.7602 H         1 UNK         0.0695 
     78 H78        23.1439  -28.5154  -44.7227 H         1 UNK         0.0983 
     79 H79        20.8413  -27.0616  -45.4262 H         1 UNK         0.3095 
     80 H80        21.4930  -23.9917  -43.8639 H         1 UNK         0.0454 
     81 H81        21.8192  -24.6496  -46.8438 H         1 UNK         0.0851 
     82 H82        22.9953  -23.7961  -45.8534 H         1 UNK         0.0851 
     83 H83        21.4292  -23.0680  -46.1685 H         1 UNK         0.0851 
     84 H84        19.5490  -24.8303  -45.8091 H         1 UNK         0.2976 
     85 H85        20.2009  -27.7737  -42.8176 H         1 UNK         0.3116 
     86 H86        20.8885  -29.4205  -40.5822 H         1 UNK         0.0646 
     87 H87        18.5735  -28.4877  -41.0569 H         1 UNK         0.0847 
     88 H88        19.1432  -26.8989  -40.5645 H         1 UNK         0.0847 
     89 H89        19.1201  -28.2209  -39.4113 H         1 UNK         0.0847 
     90 H90        21.6003  -26.0208  -41.4192 H         1 UNK         0.3040 
     91 H91        22.9304  -25.3390  -38.9645 H         1 UNK         0.1015 
     92 H92        23.7316  -23.3675  -40.2387 H         1 UNK         0.0786 
     93 H93        22.0187  -23.6234  -40.5297 H         1 UNK         0.0786 
     94 H94        23.2029  -24.0844  -41.7515 H         1 UNK         0.0786 
     95 H95        24.0287  -26.8022  -41.9987 H         1 UNK         0.3172 
     96 H96        26.8359  -26.9486  -41.2525 H         1 UNK         0.0595 
     97 H97        25.2789  -28.4092  -43.4511 H         1 UNK         0.0839 
     98 H98        27.0247  -28.2683  -43.3321 H         1 UNK         0.0839 
     99 H99        26.0538  -26.8364  -43.6352 H         1 UNK         0.0839 
    100 H100       24.1671  -28.5997  -40.0842 H         1 UNK         0.2998 
    101 H101       23.7818  -30.3321  -38.8114 H         1 UNK         0.0822 
    102 H102       25.8233  -29.6243  -37.5400 H         1 UNK         0.0787 
    103 H103       25.5432  -31.3543  -37.4442 H         1 UNK         0.0787 
    104 H104       26.8007  -30.7342  -38.5013 H         1 UNK         0.0787 
    105 H105       23.7479  -30.7123  -41.6282 H         1 UNK         0.3055 
    106 H106       24.2753  -33.6514  -41.8817 H         1 UNK         0.1106 
    107 H107       23.7139  -31.5117  -44.0185 H         1 UNK         0.0828 
    108 H108       23.9683  -33.2255  -44.3223 H         1 UNK         0.0828 
    109 H109       25.2850  -32.2425  -43.6992 H         1 UNK         0.0828 
    110 H110       22.4448  -34.9748  -42.2918 H         1 UNK         0.2931 
    111 H111       19.9272  -33.9594  -42.9728 H         1 UNK         0.0412 
    112 H112       18.8237  -37.4276  -43.2031 H         1 UNK         0.3472 
    113 H113       18.1761  -35.8971  -42.6617 H         1 UNK         0.3472 
    114 H114       19.6130  -35.2220  -40.2389 H         1 UNK         0.0970 
    115 H115       20.2526  -33.6225  -40.2188 H         1 UNK         0.0970 
    116 H116       19.3213  -31.6232  -40.6688 H         1 UNK         0.0612 
    117 H117       17.7579  -31.5275  -39.9107 H         1 UNK         0.0612 
@<TRIPOS>BOND
     1    1    2 1    
     2    1   62 1    
     3    1   63 1    
     4    1   64 1    
     5    2    3 2    
     6    2    4 am   BACKBONE|DICT|INTERRES
     7    4    5 1    
     8    4   65 1    
     9    5    6 1    
    10    5   25 1    
    11    5   66 1    
    12    6    7 1    
    13    6   67 1    
    14    6   68 1    
    15    7    8 1    
    16    8    9 1    
    17    8   69 1    
    18    8   70 1    
    19    9   10 ar   
    20    9   14 ar   
    21   10   11 ar   
    22   10   71 1    
    23   11   12 ar   
    24   11   61 1    
    25   12   13 ar   
    26   12   72 1    
    27   13   14 ar   
    28   13   15 1    
    29   14   73 1    
    30   15   16 1    
    31   15   74 1    
    32   15   75 1    
    33   16   17 1    
    34   17   18 1    
    35   17   76 1    
    36   17   77 1    
    37   18   19 1    
    38   18   27 1    
    39   18   78 1    
    40   19   20 am   BACKBONE|DICT|INTERRES
    41   19   79 1    
    42   20   21 2    
    43   20   22 1    
    44   22   23 1    
    45   22   24 1    
    46   22   80 1    
    47   23   81 1    
    48   23   82 1    
    49   23   83 1    
    50   24   25 am   BACKBONE|DICT|INTERRES
    51   24   84 1    
    52   25   26 2    
    53   27   28 2    
    54   27   29 am   BACKBONE|DICT|INTERRES
    55   29   30 1    
    56   29   85 1    
    57   30   31 1    
    58   30   32 1    
    59   30   86 1    
    60   31   87 1    
    61   31   88 1    
    62   31   89 1    
    63   32   33 2    
    64   32   34 am   BACKBONE|DICT|INTERRES
    65   34   35 1    
    66   34   90 1    
    67   35   36 1    
    68   35   37 1    
    69   35   91 1    
    70   36   92 1    
    71   36   93 1    
    72   36   94 1    
    73   37   38 2    
    74   37   39 am   BACKBONE|DICT|INTERRES
    75   39   40 1    
    76   39   95 1    
    77   40   41 1    
    78   40   42 1    
    79   40   96 1    
    80   41   97 1    
    81   41   98 1    
    82   41   99 1    
    83   42   43 2    
    84   42   44 am   BACKBONE|DICT|INTERRES
    85   44   45 1    
    86   44  100 1    
    87   45   46 1    
    88   45   47 1    
    89   45  101 1    
    90   46  102 1    
    91   46  103 1    
    92   46  104 1    
    93   47   48 2    
    94   47   49 am   BACKBONE|DICT|INTERRES
    95   49   50 1    
    96   49  105 1    
    97   50   51 1    
    98   50   52 1    
    99   50  106 1    
   100   51  107 1    
   101   51  108 1    
   102   51  109 1    
   103   52   53 2    
   104   52   54 am   BACKBONE|DICT|INTERRES
   105   54   55 1    
   106   54  110 1    
   107   55   56 1    
   108   55   59 1    
   109   55  111 1    
   110   56   57 am   BACKBONE|DICT|INTERRES
   111   56   58 2    
   112   57  112 1    
   113   57  113 1    
   114   59   60 1    
   115   59  114 1    
   116   59  115 1    
   117   60   61 1    
   118   61  116 1    
   119   61  117 1    
@<TRIPOS>SUBSTRUCTURE
     1 UNK         1 GROUP             0       ****    0 ROOT    
