@<TRIPOS>MOLECULE
3R8
117   119    1
SMALL
USER_CHARGES


@<TRIPOS>ATOM
      1 CA         14.5186  -27.0002  -38.3349 C.3       0 UNK        -0.2013 
      2 C          15.2942  -26.4116  -39.5041 C.2       0 UNK         0.4866 
      3 O          15.6049  -25.2198  -39.4947 O.2       0 UNK        -0.5176 
      4 N          15.6024  -27.2358  -40.5134 N.am      1 UNK        -0.4884 
      5 CA         16.4211  -26.8638  -41.6723 C.3       1 UNK         0.0853 
      6 C6         16.1876  -27.8417  -42.8541 C.3       10 UNK        -0.0849 
      7 S7         16.5664  -27.0755  -44.4661 S.3       10 UNK        -0.2776 
      8 C8         16.3157  -28.4727  -45.6032 C.3       10 UNK         0.0316 
      9 C9         17.4247  -29.5129  -45.5076 C.ar      10 UNK        -0.0863 
     10 C10        17.1734  -30.7602  -44.9272 C.ar      10 UNK        -0.1009 
     11 C11        18.1591  -31.7523  -44.9134 C.ar      10 UNK        -0.0712 
     12 C12        19.4137  -31.4759  -45.4696 C.ar      10 UNK        -0.0894 
     13 C13        19.6830  -30.2298  -46.0445 C.ar      10 UNK        -0.0745 
     14 C14        18.6829  -29.2523  -46.0609 C.ar      10 UNK        -0.0972 
     15 C15        21.0331  -29.9736  -46.7019 C.3       10 UNK         0.0209 
     16 S16        22.1940  -29.1225  -45.5894 S.3       10 UNK        -0.2568 
     17 C17        21.9642  -27.3848  -46.1038 C.3       10 UNK        -0.0983 
     18 CA         22.5163  -26.3422  -45.0930 C.3       3 UNK         0.0876 
     19 N          21.8555  -26.4343  -43.7964 N.am      3 UNK        -0.4424 
     20 C          20.6847  -25.8722  -43.5022 C.2       2 UNK         0.4918 
     21 O          20.0277  -25.1831  -44.2875 O.2       2 UNK        -0.4875 
     22 CA         20.1624  -26.1086  -42.0858 C.3       2 UNK         0.0481 
     23 CB         20.6536  -25.0209  -41.1140 C.3       2 UNK        -0.1831 
     24 N          18.7080  -26.1262  -42.1417 N.am      2 UNK        -0.4498 
     25 C          17.9164  -26.7833  -41.2934 C.2       1 UNK         0.5027 
     26 O          18.3351  -27.3438  -40.2781 O.2       1 UNK        -0.4969 
     27 C          24.0406  -26.4072  -44.8886 C.2       3 UNK         0.5005 
     28 O          24.5121  -26.4447  -43.7484 O.2       3 UNK        -0.5279 
     29 N          24.7928  -26.4255  -45.9976 N.am      4 UNK        -0.4463 
     30 CA         26.2546  -26.5393  -46.0090 C.3       4 UNK         0.0283 
     31 CB         26.7714  -26.2898  -47.4353 C.3       4 UNK        -0.1875 
     32 C          26.7776  -27.8873  -45.4773 C.2       4 UNK         0.4949 
     33 O          27.9207  -27.9448  -45.0232 O.2       4 UNK        -0.5039 
     34 N          25.9496  -28.9408  -45.5455 N.am      5 UNK        -0.4663 
     35 CA         26.2743  -30.2708  -45.0294 C.3       5 UNK         0.0242 
     36 CB         25.3303  -31.3189  -45.6418 C.3       5 UNK        -0.1982 
     37 C          26.2360  -30.3281  -43.4939 C.2       5 UNK         0.5017 
     38 O          27.1619  -30.8795  -42.8974 O.2       5 UNK        -0.5012 
     39 N          25.1835  -29.7622  -42.8859 N.am      6 UNK        -0.4439 
     40 CA         24.9422  -29.7506  -41.4435 C.3       6 UNK         0.0297 
     41 CB         24.6944  -31.1835  -40.9236 C.3       6 UNK        -0.2006 
     42 C          23.7289  -28.8703  -41.1170 C.2       6 UNK         0.4892 
     43 O          22.8994  -28.6043  -41.9913 O.2       6 UNK        -0.5089 
     44 N          23.6249  -28.4873  -39.8390 N.am      7 UNK        -0.4243 
     45 CA         22.4116  -27.9387  -39.2351 C.3       7 UNK         0.0196 
     46 CB         22.7955  -27.0140  -38.0696 C.3       7 UNK        -0.2007 
     47 C          21.5270  -29.0934  -38.7412 C.2       7 UNK         0.5020 
     48 O          22.0571  -30.1267  -38.3249 O.2       7 UNK        -0.5147 
     49 N          20.2002  -28.9114  -38.8041 N.am      8 UNK        -0.4734 
     50 CA         19.1551  -29.8748  -38.4178 C.3       8 UNK         0.0238 
     51 CB         19.1696  -30.1105  -36.8921 C.3       8 UNK        -0.1912 
     52 C          19.1953  -31.1932  -39.2188 C.2       8 UNK         0.5038 
     53 O          18.6939  -32.2109  -38.7381 O.2       8 UNK        -0.5046 
     54 N          19.8048  -31.1545  -40.4134 N.am      9 UNK        -0.4200 
     55 CA         20.1441  -32.3171  -41.2480 C.3       9 UNK         0.0839 
     56 C          21.2220  -33.2581  -40.6145 C.2       9 UNK         0.5513 
     57 N          21.9693  -32.8302  -39.6021 N.am      9 UNK        -0.7519 
     58 O          21.4086  -34.3893  -41.0539 O.2       9 UNK        -0.4960 
     59 C59        18.8735  -33.0628  -41.7517 C.3       10 UNK        -0.0876 
     60 S60        19.1185  -33.8968  -43.3566 S.3       10 UNK        -0.2414 
     61 C61        17.8197  -33.1464  -44.3922 C.3       10 UNK         0.0169 
     62 H62        13.5767  -26.4683  -38.2033 H         1 UNK         0.0903 
     63 H63        14.2936  -28.0561  -38.4837 H         1 UNK         0.0903 
     64 H64        15.0963  -26.9032  -37.4160 H         1 UNK         0.0903 
     65 H65        15.3472  -28.2109  -40.4507 H         1 UNK         0.3096 
     66 H66        16.1059  -25.8635  -41.9799 H         1 UNK         0.1121 
     67 H67        16.7644  -28.7612  -42.7319 H         1 UNK         0.0849 
     68 H68        15.1399  -28.1455  -42.8884 H         1 UNK         0.0849 
     69 H69        15.3395  -28.9227  -45.4153 H         1 UNK         0.0865 
     70 H70        16.2767  -28.0888  -46.6237 H         1 UNK         0.0865 
     71 H71        16.1936  -30.9733  -44.5217 H         1 UNK         0.1346 
     72 H72        20.1746  -32.2441  -45.4821 H         1 UNK         0.1412 
     73 H73        18.8722  -28.2941  -46.5241 H         1 UNK         0.1426 
     74 H74        20.9024  -29.3993  -47.6204 H         1 UNK         0.0716 
     75 H75        21.4828  -30.9202  -47.0055 H         1 UNK         0.0716 
     76 H76        22.4124  -27.2515  -47.0893 H         1 UNK         0.0695 
     77 H77        20.8987  -27.2049  -46.2472 H         1 UNK         0.0695 
     78 H78        22.3258  -25.3462  -45.4997 H         1 UNK         0.0983 
     79 H79        22.3528  -26.9919  -43.1057 H         1 UNK         0.3095 
     80 H80        20.5126  -27.0891  -41.7593 H         1 UNK         0.0454 
     81 H81        21.7434  -24.9936  -41.0764 H         1 UNK         0.0851 
     82 H82        20.3118  -24.0302  -41.4158 H         1 UNK         0.0851 
     83 H83        20.2987  -25.2018  -40.0994 H         1 UNK         0.0851 
     84 H84        18.3192  -25.7396  -42.9948 H         1 UNK         0.2976 
     85 H85        24.3372  -26.3819  -46.8981 H         1 UNK         0.3116 
     86 H86        26.6549  -25.7573  -45.3602 H         1 UNK         0.0646 
     87 H87        27.8609  -26.3384  -47.4690 H         1 UNK         0.0847 
     88 H88        26.4836  -25.3025  -47.7968 H         1 UNK         0.0847 
     89 H89        26.3918  -27.0315  -48.1393 H         1 UNK         0.0847 
     90 H90        25.0252  -28.8067  -45.9295 H         1 UNK         0.3040 
     91 H91        27.2917  -30.5166  -45.3432 H         1 UNK         0.1015 
     92 H92        25.3664  -31.3000  -46.7311 H         1 UNK         0.0786 
     93 H93        24.2953  -31.1664  -45.3363 H         1 UNK         0.0786 
     94 H94        25.6134  -32.3241  -45.3264 H         1 UNK         0.0786 
     95 H95        24.4735  -29.2880  -43.4318 H         1 UNK         0.3172 
     96 H96        25.8182  -29.3254  -40.9498 H         1 UNK         0.0595 
     97 H97        25.5774  -31.8137  -41.0226 H         1 UNK         0.0839 
     98 H98        23.8789  -31.6658  -41.4636 H         1 UNK         0.0839 
     99 H99        24.4284  -31.1845  -39.8658 H         1 UNK         0.0839 
    100 H100       24.3309  -28.8015  -39.1886 H         1 UNK         0.2998 
    101 H101       21.8652  -27.3554  -39.9744 H         1 UNK         0.0822 
    102 H102       23.4276  -26.1928  -38.4079 H         1 UNK         0.0787 
    103 H103       21.9079  -26.5730  -37.6137 H         1 UNK         0.0787 
    104 H104       23.3322  -27.5511  -37.2862 H         1 UNK         0.0787 
    105 H105       19.8317  -28.0572  -39.2157 H         1 UNK         0.3055 
    106 H106       18.1994  -29.4107  -38.6655 H         1 UNK         0.1106 
    107 H107       20.0642  -30.6461  -36.5730 H         1 UNK         0.0828 
    108 H108       19.1286  -29.1688  -36.3450 H         1 UNK         0.0828 
    109 H109       18.3090  -30.7022  -36.5780 H         1 UNK         0.0828 
    110 H110       20.1878  -30.2715  -40.7170 H         1 UNK         0.2931 
    111 H111       20.6337  -31.8792  -42.1190 H         1 UNK         0.0412 
    112 H112       22.6584  -33.4516  -39.2107 H         1 UNK         0.3472 
    113 H113       21.8556  -31.8997  -39.2140 H         1 UNK         0.3472 
    114 H114       18.0497  -32.3557  -41.8597 H         1 UNK         0.0970 
    115 H115       18.5358  -33.7962  -41.0173 H         1 UNK         0.0970 
    116 H116       16.8813  -33.1399  -43.8352 H         1 UNK         0.0612 
    117 H117       17.6563  -33.7955  -45.2532 H         1 UNK         0.0612 
@<TRIPOS>BOND
     1    1    2 1    
     2    1   62 1    
     3    1   63 1    
     4    1   64 1    
     5    2    3 2    
     6    2    4 am   BACKBONE|DICT|INTERRES
     7    4    5 1    
     8    4   65 1    
     9    5    6 1    
    10    5   25 1    
    11    5   66 1    
    12    6    7 1    
    13    6   67 1    
    14    6   68 1    
    15    7    8 1    
    16    8    9 1    
    17    8   69 1    
    18    8   70 1    
    19    9   10 ar   
    20    9   14 ar   
    21   10   11 ar   
    22   10   71 1    
    23   11   12 ar   
    24   11   61 1    
    25   12   13 ar   
    26   12   72 1    
    27   13   14 ar   
    28   13   15 1    
    29   14   73 1    
    30   15   16 1    
    31   15   74 1    
    32   15   75 1    
    33   16   17 1    
    34   17   18 1    
    35   17   76 1    
    36   17   77 1    
    37   18   19 1    
    38   18   27 1    
    39   18   78 1    
    40   19   20 am   BACKBONE|DICT|INTERRES
    41   19   79 1    
    42   20   21 2    
    43   20   22 1    
    44   22   23 1    
    45   22   24 1    
    46   22   80 1    
    47   23   81 1    
    48   23   82 1    
    49   23   83 1    
    50   24   25 am   BACKBONE|DICT|INTERRES
    51   24   84 1    
    52   25   26 2    
    53   27   28 2    
    54   27   29 am   BACKBONE|DICT|INTERRES
    55   29   30 1    
    56   29   85 1    
    57   30   31 1    
    58   30   32 1    
    59   30   86 1    
    60   31   87 1    
    61   31   88 1    
    62   31   89 1    
    63   32   33 2    
    64   32   34 am   BACKBONE|DICT|INTERRES
    65   34   35 1    
    66   34   90 1    
    67   35   36 1    
    68   35   37 1    
    69   35   91 1    
    70   36   92 1    
    71   36   93 1    
    72   36   94 1    
    73   37   38 2    
    74   37   39 am   BACKBONE|DICT|INTERRES
    75   39   40 1    
    76   39   95 1    
    77   40   41 1    
    78   40   42 1    
    79   40   96 1    
    80   41   97 1    
    81   41   98 1    
    82   41   99 1    
    83   42   43 2    
    84   42   44 am   BACKBONE|DICT|INTERRES
    85   44   45 1    
    86   44  100 1    
    87   45   46 1    
    88   45   47 1    
    89   45  101 1    
    90   46  102 1    
    91   46  103 1    
    92   46  104 1    
    93   47   48 2    
    94   47   49 am   BACKBONE|DICT|INTERRES
    95   49   50 1    
    96   49  105 1    
    97   50   51 1    
    98   50   52 1    
    99   50  106 1    
   100   51  107 1    
   101   51  108 1    
   102   51  109 1    
   103   52   53 2    
   104   52   54 am   BACKBONE|DICT|INTERRES
   105   54   55 1    
   106   54  110 1    
   107   55   56 1    
   108   55   59 1    
   109   55  111 1    
   110   56   57 am   BACKBONE|DICT|INTERRES
   111   56   58 2    
   112   57  112 1    
   113   57  113 1    
   114   59   60 1    
   115   59  114 1    
   116   59  115 1    
   117   60   61 1    
   118   61  116 1    
   119   61  117 1    
@<TRIPOS>SUBSTRUCTURE
     1 UNK         1 GROUP             0       ****    0 ROOT    
