@<TRIPOS>MOLECULE
3R8
117   119    1
SMALL
USER_CHARGES


@<TRIPOS>ATOM
      1 CA         14.4277  -23.1086  -47.4729 C.3       0 UNK        -0.2013 
      2 C          15.2738  -24.2431  -46.9134 C.2       0 UNK         0.4866 
      3 O          15.0607  -24.6500  -45.7710 O.2       0 UNK        -0.5176 
      4 N          16.2177  -24.7535  -47.7193 N.am      1 UNK        -0.4884 
      5 CA         17.1976  -25.8030  -47.3972 C.3       1 UNK         0.0853 
      6 C6         16.5405  -27.0917  -46.8247 C.3       10 UNK        -0.0849 
      7 S7         17.4905  -28.6093  -47.1766 S.3       10 UNK        -0.2776 
      8 C8         16.4880  -29.8605  -46.3114 C.3       10 UNK         0.0316 
      9 C9         16.7242  -29.8493  -44.8067 C.ar      10 UNK        -0.0863 
     10 C10        17.7510  -30.6197  -44.2518 C.ar      10 UNK        -0.1009 
     11 C11        17.9552  -30.6400  -42.8686 C.ar      10 UNK        -0.0712 
     12 C12        17.1207  -29.8892  -42.0376 C.ar      10 UNK        -0.0894 
     13 C13        16.1199  -29.0793  -42.5835 C.ar      10 UNK        -0.0745 
     14 C14        15.9128  -29.0802  -43.9664 C.ar      10 UNK        -0.0972 
     15 C15        15.2805  -28.1824  -41.6834 C.3       10 UNK         0.0209 
     16 S16        16.3015  -27.0189  -40.7156 S.3       10 UNK        -0.2568 
     17 C17        17.1813  -26.0787  -42.0137 C.3       10 UNK        -0.0983 
     18 CA         18.6288  -26.5794  -42.2655 C.3       3 UNK         0.0876 
     19 N          19.1498  -26.0526  -43.5260 N.am      3 UNK        -0.4424 
     20 C          20.2463  -26.4963  -44.1525 C.2       2 UNK         0.4918 
     21 O          20.9608  -27.4017  -43.7239 O.2       2 UNK        -0.4875 
     22 CA         20.5575  -25.8471  -45.5143 C.3       2 UNK         0.0481 
     23 CB         21.8388  -26.4081  -46.1591 C.3       2 UNK        -0.1831 
     24 N          19.4341  -26.0478  -46.4318 N.am      2 UNK        -0.4498 
     25 C          18.3358  -25.2846  -46.4880 C.2       1 UNK         0.5027 
     26 O          18.2083  -24.2465  -45.8329 O.2       1 UNK        -0.4969 
     27 C          19.5784  -26.2657  -41.0891 C.2       3 UNK         0.5005 
     28 O          20.1893  -25.1934  -41.0626 O.2       3 UNK        -0.5279 
     29 N          19.6575  -27.2058  -40.1348 N.am      4 UNK        -0.4463 
     30 CA         20.4588  -27.1647  -38.9050 C.3       4 UNK         0.0283 
     31 CB         19.9906  -26.0259  -37.9736 C.3       4 UNK        -0.1875 
     32 C          21.9801  -27.1489  -39.1572 C.2       4 UNK         0.4949 
     33 O          22.7284  -26.5715  -38.3678 O.2       4 UNK        -0.5039 
     34 N          22.4197  -27.8181  -40.2323 N.am      5 UNK        -0.4663 
     35 CA         23.8300  -27.9596  -40.6147 C.3       5 UNK         0.0242 
     36 CB         23.9116  -28.1416  -42.1392 C.3       5 UNK        -0.1982 
     37 C          24.5723  -29.0860  -39.8633 C.2       5 UNK         0.5017 
     38 O          25.7419  -29.3343  -40.1608 O.2       5 UNK        -0.5012 
     39 N          23.8955  -29.7485  -38.9114 N.am      6 UNK        -0.4439 
     40 CA         24.3933  -30.8233  -38.0447 C.3       6 UNK         0.0297 
     41 CB         25.4173  -30.2667  -37.0285 C.3       6 UNK        -0.2006 
     42 C          24.9014  -32.0230  -38.8662 C.2       6 UNK         0.4892 
     43 O          24.1132  -32.6142  -39.6047 O.2       6 UNK        -0.5089 
     44 N          26.1969  -32.3485  -38.7599 N.am      7 UNK        -0.4243 
     45 CA         26.8555  -33.4253  -39.5068 C.3       7 UNK         0.0196 
     46 CB         28.2985  -33.5815  -39.0006 C.3       7 UNK        -0.2007 
     47 C          26.8402  -33.2290  -41.0348 C.2       7 UNK         0.5020 
     48 O          26.8805  -34.2184  -41.7660 O.2       7 UNK        -0.5147 
     49 N          26.7615  -31.9720  -41.4936 N.am      8 UNK        -0.4734 
     50 CA         26.6646  -31.6165  -42.9109 C.3       8 UNK         0.0238 
     51 CB         27.3636  -30.2648  -43.1378 C.3       8 UNK        -0.1912 
     52 C          25.2154  -31.5953  -43.4349 C.2       8 UNK         0.5038 
     53 O          25.0307  -31.3890  -44.6352 O.2       8 UNK        -0.5046 
     54 N          24.2182  -31.8031  -42.5597 N.am      9 UNK        -0.4200 
     55 CA         22.7929  -31.8695  -42.9296 C.3       9 UNK         0.0839 
     56 C          22.3910  -33.1749  -43.6778 C.2       9 UNK         0.5513 
     57 N          23.1841  -34.2392  -43.6257 N.am      9 UNK        -0.7519 
     58 O          21.3520  -33.2203  -44.3296 O.2       9 UNK        -0.4960 
     59 C59        21.8680  -31.5899  -41.7071 C.3       10 UNK        -0.0876 
     60 S60        20.5602  -30.3745  -42.0661 S.3       10 UNK        -0.2414 
     61 C61        19.1025  -31.4393  -42.2751 C.3       10 UNK         0.0169 
     62 H62        14.5469  -22.2158  -46.8596 H         1 UNK         0.0903 
     63 H63        14.7052  -22.8562  -48.4961 H         1 UNK         0.0903 
     64 H64        13.3745  -23.3880  -47.4667 H         1 UNK         0.0903 
     65 H65        16.3341  -24.3429  -48.6360 H         1 UNK         0.3096 
     66 H66        17.6567  -26.0509  -48.3562 H         1 UNK         0.1121 
     67 H67        16.3825  -26.9971  -45.7495 H         1 UNK         0.0849 
     68 H68        15.5503  -27.2304  -47.2620 H         1 UNK         0.0849 
     69 H69        15.4309  -29.7068  -46.5343 H         1 UNK         0.0865 
     70 H70        16.7371  -30.8444  -46.7119 H         1 UNK         0.0865 
     71 H71        18.3984  -31.1983  -44.8971 H         1 UNK         0.1346 
     72 H72        17.2819  -29.8954  -40.9683 H         1 UNK         0.1412 
     73 H73        15.1259  -28.4722  -44.3914 H         1 UNK         0.1426 
     74 H74        14.7062  -28.8055  -40.9966 H         1 UNK         0.0716 
     75 H75        14.5539  -27.6129  -42.2652 H         1 UNK         0.0716 
     76 H76        17.1822  -25.0223  -41.7384 H         1 UNK         0.0695 
     77 H77        16.5973  -26.1431  -42.9338 H         1 UNK         0.0695 
     78 H78        18.6039  -27.6624  -42.3907 H         1 UNK         0.0983 
     79 H79        18.6387  -25.2881  -43.9487 H         1 UNK         0.3095 
     80 H80        20.7100  -24.7791  -45.3454 H         1 UNK         0.0454 
     81 H81        21.7603  -27.4789  -46.3513 H         1 UNK         0.0851 
     82 H82        22.7008  -26.2571  -45.5078 H         1 UNK         0.0851 
     83 H83        22.0575  -25.9120  -47.1046 H         1 UNK         0.0851 
     84 H84        19.4299  -26.9200  -46.9444 H         1 UNK         0.2976 
     85 H85        19.1017  -28.0414  -40.2565 H         1 UNK         0.3116 
     86 H86        20.2564  -28.1045  -38.3892 H         1 UNK         0.0646 
     87 H87        20.2285  -25.0434  -38.3820 H         1 UNK         0.0847 
     88 H88        20.4728  -26.0949  -36.9977 H         1 UNK         0.0847 
     89 H89        18.9146  -26.0676  -37.8047 H         1 UNK         0.0847 
     90 H90        21.7405  -28.2520  -40.8441 H         1 UNK         0.3040 
     91 H91        24.3529  -27.0333  -40.3666 H         1 UNK         0.1015 
     92 H92        24.9439  -28.2257  -42.4770 H         1 UNK         0.0786 
     93 H93        23.4776  -27.2875  -42.6591 H         1 UNK         0.0786 
     94 H94        23.3816  -29.0331  -42.4705 H         1 UNK         0.0786 
     95 H95        22.9312  -29.4849  -38.7720 H         1 UNK         0.3172 
     96 H96        23.5343  -31.1874  -37.4793 H         1 UNK         0.0595 
     97 H97        25.7439  -31.0392  -36.3308 H         1 UNK         0.0839 
     98 H98        24.9751  -29.4696  -36.4306 H         1 UNK         0.0839 
     99 H99        26.3035  -29.8548  -37.5128 H         1 UNK         0.0839 
    100 H100       26.7797  -31.7966  -38.1472 H         1 UNK         0.2998 
    101 H101       26.3155  -34.3507  -39.2952 H         1 UNK         0.0822 
    102 H102       28.8079  -34.3955  -39.5188 H         1 UNK         0.0787 
    103 H103       28.8836  -32.6753  -39.1632 H         1 UNK         0.0787 
    104 H104       28.3238  -33.8129  -37.9355 H         1 UNK         0.0787 
    105 H105       26.6889  -31.2074  -40.8306 H         1 UNK         0.3055 
    106 H106       27.1958  -32.3634  -43.5056 H         1 UNK         0.1106 
    107 H107       27.3147  -29.9656  -44.1857 H         1 UNK         0.0828 
    108 H108       26.9112  -29.4680  -42.5496 H         1 UNK         0.0828 
    109 H109       28.4185  -30.3176  -42.8685 H         1 UNK         0.0828 
    110 H110       24.4406  -32.0114  -41.5934 H         1 UNK         0.2931 
    111 H111       22.6396  -31.0666  -43.6537 H         1 UNK         0.0412 
    112 H112       24.0422  -34.2152  -43.0973 H         1 UNK         0.3472 
    113 H113       22.9187  -35.0767  -44.1201 H         1 UNK         0.3472 
    114 H114       21.4396  -32.5048  -41.2924 H         1 UNK         0.0970 
    115 H115       22.4405  -31.1539  -40.8905 H         1 UNK         0.0970 
    116 H116       18.8157  -31.8588  -41.3098 H         1 UNK         0.0612 
    117 H117       19.3447  -32.2820  -42.9225 H         1 UNK         0.0612 
@<TRIPOS>BOND
     1    1    2 1    
     2    1   62 1    
     3    1   63 1    
     4    1   64 1    
     5    2    3 2    
     6    2    4 am   BACKBONE|DICT|INTERRES
     7    4    5 1    
     8    4   65 1    
     9    5    6 1    
    10    5   25 1    
    11    5   66 1    
    12    6    7 1    
    13    6   67 1    
    14    6   68 1    
    15    7    8 1    
    16    8    9 1    
    17    8   69 1    
    18    8   70 1    
    19    9   10 ar   
    20    9   14 ar   
    21   10   11 ar   
    22   10   71 1    
    23   11   12 ar   
    24   11   61 1    
    25   12   13 ar   
    26   12   72 1    
    27   13   14 ar   
    28   13   15 1    
    29   14   73 1    
    30   15   16 1    
    31   15   74 1    
    32   15   75 1    
    33   16   17 1    
    34   17   18 1    
    35   17   76 1    
    36   17   77 1    
    37   18   19 1    
    38   18   27 1    
    39   18   78 1    
    40   19   20 am   BACKBONE|DICT|INTERRES
    41   19   79 1    
    42   20   21 2    
    43   20   22 1    
    44   22   23 1    
    45   22   24 1    
    46   22   80 1    
    47   23   81 1    
    48   23   82 1    
    49   23   83 1    
    50   24   25 am   BACKBONE|DICT|INTERRES
    51   24   84 1    
    52   25   26 2    
    53   27   28 2    
    54   27   29 am   BACKBONE|DICT|INTERRES
    55   29   30 1    
    56   29   85 1    
    57   30   31 1    
    58   30   32 1    
    59   30   86 1    
    60   31   87 1    
    61   31   88 1    
    62   31   89 1    
    63   32   33 2    
    64   32   34 am   BACKBONE|DICT|INTERRES
    65   34   35 1    
    66   34   90 1    
    67   35   36 1    
    68   35   37 1    
    69   35   91 1    
    70   36   92 1    
    71   36   93 1    
    72   36   94 1    
    73   37   38 2    
    74   37   39 am   BACKBONE|DICT|INTERRES
    75   39   40 1    
    76   39   95 1    
    77   40   41 1    
    78   40   42 1    
    79   40   96 1    
    80   41   97 1    
    81   41   98 1    
    82   41   99 1    
    83   42   43 2    
    84   42   44 am   BACKBONE|DICT|INTERRES
    85   44   45 1    
    86   44  100 1    
    87   45   46 1    
    88   45   47 1    
    89   45  101 1    
    90   46  102 1    
    91   46  103 1    
    92   46  104 1    
    93   47   48 2    
    94   47   49 am   BACKBONE|DICT|INTERRES
    95   49   50 1    
    96   49  105 1    
    97   50   51 1    
    98   50   52 1    
    99   50  106 1    
   100   51  107 1    
   101   51  108 1    
   102   51  109 1    
   103   52   53 2    
   104   52   54 am   BACKBONE|DICT|INTERRES
   105   54   55 1    
   106   54  110 1    
   107   55   56 1    
   108   55   59 1    
   109   55  111 1    
   110   56   57 am   BACKBONE|DICT|INTERRES
   111   56   58 2    
   112   57  112 1    
   113   57  113 1    
   114   59   60 1    
   115   59  114 1    
   116   59  115 1    
   117   60   61 1    
   118   61  116 1    
   119   61  117 1    
@<TRIPOS>SUBSTRUCTURE
     1 UNK         1 GROUP             0       ****    0 ROOT    
