@<TRIPOS>MOLECULE
3R8
117   119    1
SMALL
USER_CHARGES


@<TRIPOS>ATOM
      1 CA         19.7180  -26.0375  -48.6386 C.3       0 UNK        -0.2013 
      2 C          19.2491  -26.8145  -47.4122 C.2       0 UNK         0.4866 
      3 O          19.4395  -28.0315  -47.3443 O.2       0 UNK        -0.5176 
      4 N          18.6412  -26.1227  -46.4353 N.am      1 UNK        -0.4884 
      5 CA         18.1632  -26.6897  -45.1673 C.3       1 UNK         0.0853 
      6 C6         16.9689  -25.8662  -44.6188 C.3       10 UNK        -0.0849 
      7 S7         16.0610  -26.6504  -43.2422 S.3       10 UNK        -0.2776 
      8 C8         15.2519  -28.0772  -44.0421 C.3       10 UNK         0.0316 
      9 C9         16.0571  -29.3529  -43.8347 C.ar      10 UNK        -0.0863 
     10 C10        16.6663  -30.0073  -44.9130 C.ar      10 UNK        -0.1009 
     11 C11        17.4451  -31.1484  -44.6965 C.ar      10 UNK        -0.0712 
     12 C12        17.5767  -31.6523  -43.4031 C.ar      10 UNK        -0.0894 
     13 C13        16.9711  -31.0154  -42.3216 C.ar      10 UNK        -0.0745 
     14 C14        16.2044  -29.8702  -42.5430 C.ar      10 UNK        -0.0972 
     15 C15        17.1776  -31.5614  -40.9196 C.3       10 UNK         0.0209 
     16 S16        18.8839  -31.2829  -40.3505 S.3       10 UNK        -0.2568 
     17 C17        18.8474  -29.5048  -39.9493 C.3       10 UNK        -0.0983 
     18 CA         20.1756  -28.8081  -40.3258 C.3       3 UNK         0.0876 
     19 N          20.3558  -28.6682  -41.7777 N.am      3 UNK        -0.4424 
     20 C          21.5271  -28.3569  -42.3503 C.2       2 UNK         0.4918 
     21 O          22.5924  -28.3601  -41.7343 O.2       2 UNK        -0.4875 
     22 CA         21.5432  -27.9509  -43.8350 C.3       2 UNK         0.0481 
     23 CB         22.4139  -28.9091  -44.6610 C.3       2 UNK        -0.1831 
     24 N          20.2312  -27.8005  -44.4699 N.am      2 UNK        -0.4498 
     25 C          19.3449  -26.8354  -44.1849 C.2       1 UNK         0.5027 
     26 O          19.4726  -26.0602  -43.2354 O.2       1 UNK        -0.4969 
     27 C          20.3241  -27.4605  -39.5835 C.2       3 UNK         0.5005 
     28 O          20.5773  -27.4743  -38.3771 O.2       3 UNK        -0.5279 
     29 N          20.2235  -26.3239  -40.2931 N.am      4 UNK        -0.4463 
     30 CA         20.5057  -24.9787  -39.7843 C.3       4 UNK         0.0283 
     31 CB         19.8389  -23.9432  -40.7086 C.3       4 UNK        -0.1875 
     32 C          22.0210  -24.7303  -39.6115 C.2       4 UNK         0.4949 
     33 O          22.5783  -23.8353  -40.2481 O.2       4 UNK        -0.5039 
     34 N          22.6493  -25.5352  -38.7428 N.am      5 UNK        -0.4663 
     35 CA         24.0518  -25.4878  -38.3113 C.3       5 UNK         0.0242 
     36 CB         24.3089  -24.2159  -37.4740 C.3       5 UNK        -0.1982 
     37 C          25.0729  -25.6708  -39.4543 C.2       5 UNK         0.5017 
     38 O          26.0959  -24.9783  -39.4754 O.2       5 UNK        -0.5012 
     39 N          24.7936  -26.6063  -40.3719 N.am      6 UNK        -0.4439 
     40 CA         25.6803  -26.9826  -41.4726 C.3       6 UNK         0.0297 
     41 CB         25.2006  -26.3159  -42.7793 C.3       6 UNK        -0.2006 
     42 C          25.8077  -28.5158  -41.5301 C.2       6 UNK         0.4892 
     43 O          26.0111  -29.1404  -40.4878 O.2       6 UNK        -0.5089 
     44 N          25.7293  -29.0917  -42.7376 N.am      7 UNK        -0.4243 
     45 CA         25.9850  -30.5060  -43.0320 C.3       7 UNK         0.0196 
     46 CB         26.0667  -30.6897  -44.5573 C.3       7 UNK        -0.2007 
     47 C          24.9877  -31.5150  -42.4297 C.2       7 UNK         0.5020 
     48 O          25.3459  -32.6886  -42.3301 O.2       7 UNK        -0.5147 
     49 N          23.7787  -31.0638  -42.0564 N.am      8 UNK        -0.4734 
     50 CA         22.6740  -31.8500  -41.4835 C.3       8 UNK         0.0238 
     51 CB         23.0120  -32.2797  -40.0404 C.3       8 UNK        -0.1912 
     52 C          22.2511  -33.0349  -42.3761 C.2       8 UNK         0.5038 
     53 O          22.5052  -34.1915  -42.0342 O.2       8 UNK        -0.5046 
     54 N          21.6175  -32.7147  -43.5121 N.am      9 UNK        -0.4200 
     55 CA         21.1201  -33.6545  -44.5352 C.3       9 UNK         0.0839 
     56 C          19.9733  -34.6232  -44.1050 C.2       9 UNK         0.5513 
     57 N          19.5456  -34.6554  -42.8498 N.am      9 UNK        -0.7519 
     58 O          19.4675  -35.3795  -44.9298 O.2       9 UNK        -0.4960 
     59 C59        20.8328  -32.9377  -45.8911 C.3       10 UNK        -0.0876 
     60 S60        19.9501  -31.3398  -45.7687 S.3       10 UNK        -0.2414 
     61 C61        18.1966  -31.8181  -45.8346 C.3       10 UNK         0.0169 
     62 H62        19.4153  -24.9890  -48.5974 H         1 UNK         0.0903 
     63 H63        20.8058  -26.0725  -48.7137 H         1 UNK         0.0903 
     64 H64        19.3001  -26.4786  -49.5470 H         1 UNK         0.0903 
     65 H65        18.5428  -25.1192  -46.5303 H         1 UNK         0.3096 
     66 H66        17.8001  -27.6950  -45.3766 H         1 UNK         0.1121 
     67 H67        17.3012  -24.8788  -44.2919 H         1 UNK         0.0849 
     68 H68        16.2490  -25.6817  -45.4181 H         1 UNK         0.0849 
     69 H69        14.2621  -28.2113  -43.6038 H         1 UNK         0.0865 
     70 H70        15.0898  -27.8761  -45.1019 H         1 UNK         0.0865 
     71 H71        16.5617  -29.6153  -45.9157 H         1 UNK         0.1346 
     72 H72        18.1846  -32.5243  -43.2289 H         1 UNK         0.1412 
     73 H73        15.7396  -29.3637  -41.7079 H         1 UNK         0.1426 
     74 H74        16.9755  -32.6337  -40.9195 H         1 UNK         0.0716 
     75 H75        16.4760  -31.1154  -40.2125 H         1 UNK         0.0716 
     76 H76        18.6545  -29.4312  -38.8768 H         1 UNK         0.0695 
     77 H77        18.0067  -29.0148  -40.4430 H         1 UNK         0.0695 
     78 H78        20.9913  -29.4294  -39.9490 H         1 UNK         0.0983 
     79 H79        19.5197  -28.6760  -42.3440 H         1 UNK         0.3095 
     80 H80        22.0144  -26.9671  -43.8783 H         1 UNK         0.0454 
     81 H81        23.4576  -28.8310  -44.3608 H         1 UNK         0.0851 
     82 H82        22.3713  -28.6782  -45.7273 H         1 UNK         0.0851 
     83 H83        22.1173  -29.9487  -44.5287 H         1 UNK         0.0851 
     84 H84        20.0599  -28.3613  -45.2986 H         1 UNK         0.2976 
     85 H85        20.0153  -26.3833  -41.2855 H         1 UNK         0.3116 
     86 H86        20.0478  -24.8795  -38.7978 H         1 UNK         0.0646 
     87 H87        18.7670  -24.1208  -40.7981 H         1 UNK         0.0847 
     88 H88        20.2654  -23.9641  -41.7122 H         1 UNK         0.0847 
     89 H89        19.9694  -22.9323  -40.3207 H         1 UNK         0.0847 
     90 H90        22.0794  -26.2647  -38.3200 H         1 UNK         0.3040 
     91 H91        24.1946  -26.3450  -37.6512 H         1 UNK         0.1015 
     92 H92        25.3070  -24.2304  -37.0338 H         1 UNK         0.0786 
     93 H93        23.5969  -24.1304  -36.6524 H         1 UNK         0.0786 
     94 H94        24.2326  -23.3116  -38.0793 H         1 UNK         0.0786 
     95 H95        23.9423  -27.1527  -40.2918 H         1 UNK         0.3172 
     96 H96        26.6915  -26.6224  -41.2736 H         1 UNK         0.0595 
     97 H97        25.8923  -26.4992  -43.6024 H         1 UNK         0.0839 
     98 H98        25.1355  -25.2339  -42.6600 H         1 UNK         0.0839 
     99 H99        24.2153  -26.6681  -43.0793 H         1 UNK         0.0839 
    100 H100       25.5672  -28.4915  -43.5320 H         1 UNK         0.2998 
    101 H101       26.9639  -30.7479  -42.6125 H         1 UNK         0.0822 
    102 H102       26.3244  -31.7187  -44.8131 H         1 UNK         0.0787 
    103 H103       26.8329  -30.0507  -44.9961 H         1 UNK         0.0787 
    104 H104       25.1187  -30.4646  -45.0456 H         1 UNK         0.0787 
    105 H105       23.6080  -30.0659  -42.1282 H         1 UNK         0.3055 
    106 H106       21.8102  -31.1887  -41.4231 H         1 UNK         0.1106 
    107 H107       23.2347  -31.4157  -39.4138 H         1 UNK         0.0828 
    108 H108       22.1714  -32.8039  -39.5832 H         1 UNK         0.0828 
    109 H109       23.8720  -32.9493  -40.0050 H         1 UNK         0.0828 
    110 H110       21.4227  -31.7444  -43.7065 H         1 UNK         0.2931 
    111 H111       21.9545  -34.3309  -44.7307 H         1 UNK         0.0412 
    112 H112       19.9962  -34.0976  -42.1428 H         1 UNK         0.3472 
    113 H113       18.8152  -35.3016  -42.5958 H         1 UNK         0.3472 
    114 H114       20.3172  -33.5890  -46.5997 H         1 UNK         0.0970 
    115 H115       21.7892  -32.7182  -46.3688 H         1 UNK         0.0970 
    116 H116       17.7814  -31.5267  -46.8003 H         1 UNK         0.0612 
    117 H117       18.0877  -32.9009  -45.7611 H         1 UNK         0.0612 
@<TRIPOS>BOND
     1    1    2 1    
     2    1   62 1    
     3    1   63 1    
     4    1   64 1    
     5    2    3 2    
     6    2    4 am   BACKBONE|DICT|INTERRES
     7    4    5 1    
     8    4   65 1    
     9    5    6 1    
    10    5   25 1    
    11    5   66 1    
    12    6    7 1    
    13    6   67 1    
    14    6   68 1    
    15    7    8 1    
    16    8    9 1    
    17    8   69 1    
    18    8   70 1    
    19    9   10 ar   
    20    9   14 ar   
    21   10   11 ar   
    22   10   71 1    
    23   11   12 ar   
    24   11   61 1    
    25   12   13 ar   
    26   12   72 1    
    27   13   14 ar   
    28   13   15 1    
    29   14   73 1    
    30   15   16 1    
    31   15   74 1    
    32   15   75 1    
    33   16   17 1    
    34   17   18 1    
    35   17   76 1    
    36   17   77 1    
    37   18   19 1    
    38   18   27 1    
    39   18   78 1    
    40   19   20 am   BACKBONE|DICT|INTERRES
    41   19   79 1    
    42   20   21 2    
    43   20   22 1    
    44   22   23 1    
    45   22   24 1    
    46   22   80 1    
    47   23   81 1    
    48   23   82 1    
    49   23   83 1    
    50   24   25 am   BACKBONE|DICT|INTERRES
    51   24   84 1    
    52   25   26 2    
    53   27   28 2    
    54   27   29 am   BACKBONE|DICT|INTERRES
    55   29   30 1    
    56   29   85 1    
    57   30   31 1    
    58   30   32 1    
    59   30   86 1    
    60   31   87 1    
    61   31   88 1    
    62   31   89 1    
    63   32   33 2    
    64   32   34 am   BACKBONE|DICT|INTERRES
    65   34   35 1    
    66   34   90 1    
    67   35   36 1    
    68   35   37 1    
    69   35   91 1    
    70   36   92 1    
    71   36   93 1    
    72   36   94 1    
    73   37   38 2    
    74   37   39 am   BACKBONE|DICT|INTERRES
    75   39   40 1    
    76   39   95 1    
    77   40   41 1    
    78   40   42 1    
    79   40   96 1    
    80   41   97 1    
    81   41   98 1    
    82   41   99 1    
    83   42   43 2    
    84   42   44 am   BACKBONE|DICT|INTERRES
    85   44   45 1    
    86   44  100 1    
    87   45   46 1    
    88   45   47 1    
    89   45  101 1    
    90   46  102 1    
    91   46  103 1    
    92   46  104 1    
    93   47   48 2    
    94   47   49 am   BACKBONE|DICT|INTERRES
    95   49   50 1    
    96   49  105 1    
    97   50   51 1    
    98   50   52 1    
    99   50  106 1    
   100   51  107 1    
   101   51  108 1    
   102   51  109 1    
   103   52   53 2    
   104   52   54 am   BACKBONE|DICT|INTERRES
   105   54   55 1    
   106   54  110 1    
   107   55   56 1    
   108   55   59 1    
   109   55  111 1    
   110   56   57 am   BACKBONE|DICT|INTERRES
   111   56   58 2    
   112   57  112 1    
   113   57  113 1    
   114   59   60 1    
   115   59  114 1    
   116   59  115 1    
   117   60   61 1    
   118   61  116 1    
   119   61  117 1    
@<TRIPOS>SUBSTRUCTURE
     1 UNK         1 GROUP             0       ****    0 ROOT    
