@<TRIPOS>MOLECULE
3R8
117   119    1
SMALL
USER_CHARGES


@<TRIPOS>ATOM
      1 CA         18.3245  -29.2133  -41.2233 C.3       0 UNK        -0.2013 
      2 C          18.3985  -28.1015  -42.2567 C.2       0 UNK         0.4866 
      3 O          19.2040  -28.1646  -43.1871 O.2       0 UNK        -0.5176 
      4 N          17.5444  -27.0853  -42.0822 N.am      1 UNK        -0.4884 
      5 CA         17.2919  -25.9775  -43.0104 C.3       1 UNK         0.0853 
      6 C6         16.5778  -26.4409  -44.3132 C.3       10 UNK        -0.0849 
      7 S7         15.0172  -27.3186  -43.9280 S.3       10 UNK        -0.2776 
      8 C8         14.8703  -28.5589  -45.2576 C.3       10 UNK         0.0316 
      9 C9         16.0855  -29.4707  -45.3839 C.ar      10 UNK        -0.0863 
     10 C10        16.3791  -30.4270  -44.4029 C.ar      10 UNK        -0.1009 
     11 C11        17.4889  -31.2708  -44.5432 C.ar      10 UNK        -0.0712 
     12 C12        18.2901  -31.1613  -45.6839 C.ar      10 UNK        -0.0894 
     13 C13        18.0222  -30.1928  -46.6547 C.ar      10 UNK        -0.0745 
     14 C14        16.9126  -29.3598  -46.5052 C.ar      10 UNK        -0.0972 
     15 C15        18.9455  -30.0246  -47.8521 C.3       10 UNK         0.0209 
     16 S16        20.0794  -28.6152  -47.6294 S.3       10 UNK        -0.2568 
     17 C17        21.1022  -29.2139  -46.2433 C.3       10 UNK        -0.0983 
     18 CA         22.0279  -28.1234  -45.6448 C.3       3 UNK         0.0876 
     19 N          21.2404  -27.0058  -45.1189 N.am      3 UNK        -0.4424 
     20 C          21.4610  -25.7127  -45.3827 C.2       2 UNK         0.4918 
     21 O          22.3707  -25.3124  -46.1113 O.2       2 UNK        -0.4875 
     22 CA         20.5032  -24.6909  -44.7410 C.3       2 UNK         0.0481 
     23 CB         20.2509  -23.4713  -45.6473 C.3       2 UNK        -0.1831 
     24 N          19.2220  -25.3090  -44.3938 N.am      2 UNK        -0.4498 
     25 C          18.5734  -25.1456  -43.2342 C.2       1 UNK         0.5027 
     26 O          18.9523  -24.3875  -42.3390 O.2       1 UNK        -0.4969 
     27 C          22.8927  -28.7131  -44.5113 C.2       3 UNK         0.5005 
     28 O          22.8860  -28.1913  -43.3940 O.2       3 UNK        -0.5279 
     29 N          23.5953  -29.8154  -44.8194 N.am      4 UNK        -0.4463 
     30 CA         24.1879  -30.7870  -43.8908 C.3       4 UNK         0.0283 
     31 CB         23.0690  -31.6682  -43.2961 C.3       4 UNK        -0.1875 
     32 C          25.0739  -30.1711  -42.7941 C.2       4 UNK         0.4949 
     33 O          24.7723  -30.3289  -41.6118 O.2       4 UNK        -0.5039 
     34 N          26.1407  -29.4721  -43.2095 N.am      5 UNK        -0.4663 
     35 CA         27.1847  -28.8874  -42.3512 C.3       5 UNK         0.0242 
     36 CB         28.0901  -30.0052  -41.7896 C.3       5 UNK        -0.1982 
     37 C          26.6235  -27.9669  -41.2461 C.2       5 UNK         0.5017 
     38 O          26.9932  -28.1055  -40.0786 O.2       5 UNK        -0.5012 
     39 N          25.7259  -27.0597  -41.6553 N.am      6 UNK        -0.4439 
     40 CA         24.9464  -26.1385  -40.8232 C.3       6 UNK         0.0297 
     41 CB         25.8480  -25.2012  -39.9888 C.3       6 UNK        -0.2006 
     42 C          23.8789  -26.8724  -39.9893 C.2       6 UNK         0.4892 
     43 O          23.8630  -26.7669  -38.7614 O.2       6 UNK        -0.5089 
     44 N          22.9756  -27.5562  -40.7032 N.am      7 UNK        -0.4243 
     45 CA         21.7062  -28.1209  -40.2458 C.3       7 UNK         0.0196 
     46 CB         20.7731  -27.0078  -39.7158 C.3       7 UNK        -0.2007 
     47 C          21.8294  -29.3188  -39.2877 C.2       7 UNK         0.5020 
     48 O          21.0020  -29.4584  -38.3846 O.2       7 UNK        -0.5147 
     49 N          22.8095  -30.2066  -39.5152 N.am      8 UNK        -0.4734 
     50 CA         22.9983  -31.4304  -38.7211 C.3       8 UNK         0.0238 
     51 CB         24.3428  -32.0863  -39.0731 C.3       8 UNK        -0.1912 
     52 C          21.8520  -32.4515  -38.8584 C.2       8 UNK         0.5038 
     53 O          21.6409  -33.2348  -37.9315 O.2       8 UNK        -0.5046 
     54 N          21.1269  -32.4178  -39.9861 N.am      9 UNK        -0.4200 
     55 CA         19.9010  -33.1995  -40.2182 C.3       9 UNK         0.0839 
     56 C          18.6236  -32.6270  -39.5330 C.2       9 UNK         0.5513 
     57 N          18.6860  -31.5124  -38.8121 N.am      9 UNK        -0.7519 
     58 O          17.5536  -33.2201  -39.6420 O.2       9 UNK        -0.4960 
     59 C59        19.6916  -33.5291  -41.7221 C.3       10 UNK        -0.0876 
     60 S60        19.5105  -32.0718  -42.8074 S.3       10 UNK        -0.2414 
     61 C61        17.8289  -32.3081  -43.4773 C.3       10 UNK         0.0169 
     62 H62        19.2926  -29.6919  -41.0970 H         1 UNK         0.0903 
     63 H63        18.0022  -28.8430  -40.2508 H         1 UNK         0.0903 
     64 H64        17.6154  -29.9734  -41.5478 H         1 UNK         0.0903 
     65 H65        16.9402  -27.0957  -41.2726 H         1 UNK         0.3096 
     66 H66        16.6036  -25.3066  -42.4932 H         1 UNK         0.1121 
     67 H67        16.3417  -25.5865  -44.9501 H         1 UNK         0.0849 
     68 H68        17.2291  -27.0936  -44.8940 H         1 UNK         0.0849 
     69 H69        13.9872  -29.1707  -45.0684 H         1 UNK         0.0865 
     70 H70        14.6780  -28.0395  -46.1978 H         1 UNK         0.0865 
     71 H71        15.7459  -30.5065  -43.5300 H         1 UNK         0.1346 
     72 H72        19.1495  -31.8083  -45.7944 H         1 UNK         0.1412 
     73 H73        16.7047  -28.6131  -47.2596 H         1 UNK         0.1426 
     74 H74        19.5245  -30.9330  -48.0262 H         1 UNK         0.0716 
     75 H75        18.3510  -29.8629  -48.7524 H         1 UNK         0.0716 
     76 H76        20.4502  -29.5971  -45.4573 H         1 UNK         0.0695 
     77 H77        21.6715  -30.0665  -46.6162 H         1 UNK         0.0695 
     78 H78        22.7096  -27.7777  -46.4247 H         1 UNK         0.0983 
     79 H79        20.5345  -27.2663  -44.4353 H         1 UNK         0.3095 
     80 H80        21.0055  -24.3452  -43.8354 H         1 UNK         0.0454 
     81 H81        19.7946  -23.7627  -46.5938 H         1 UNK         0.0851 
     82 H82        19.5921  -22.7491  -45.1651 H         1 UNK         0.0851 
     83 H83        21.1815  -22.9514  -45.8781 H         1 UNK         0.0851 
     84 H84        18.8652  -25.9837  -45.0565 H         1 UNK         0.2976 
     85 H85        23.5956  -30.1079  -45.7869 H         1 UNK         0.3116 
     86 H86        24.8361  -31.4343  -44.4834 H         1 UNK         0.0646 
     87 H87        23.4786  -32.4498  -42.6550 H         1 UNK         0.0847 
     88 H88        22.4912  -32.1619  -44.0773 H         1 UNK         0.0847 
     89 H89        22.3780  -31.0790  -42.6926 H         1 UNK         0.0847 
     90 H90        26.2748  -29.3643  -44.2059 H         1 UNK         0.3040 
     91 H91        27.8019  -28.2536  -42.9903 H         1 UNK         0.1015 
     92 H92        28.5085  -30.6168  -42.5889 H         1 UNK         0.0786 
     93 H93        27.5443  -30.6647  -41.1135 H         1 UNK         0.0786 
     94 H94        28.9286  -29.5873  -41.2309 H         1 UNK         0.0786 
     95 H95        25.4704  -27.0800  -42.6333 H         1 UNK         0.3172 
     96 H96        24.3973  -25.5045  -41.5215 H         1 UNK         0.0595 
     97 H97        26.3911  -25.7362  -39.2095 H         1 UNK         0.0839 
     98 H98        25.2511  -24.4355  -39.4921 H         1 UNK         0.0839 
     99 H99        26.5769  -24.6879  -40.6156 H         1 UNK         0.0839 
    100 H100       23.1207  -27.6532  -41.7090 H         1 UNK         0.2998 
    101 H101       21.2493  -28.5217  -41.1501 H         1 UNK         0.0822 
    102 H102       20.6248  -26.2278  -40.4631 H         1 UNK         0.0787 
    103 H103       19.7882  -27.3990  -39.4627 H         1 UNK         0.0787 
    104 H104       21.1701  -26.5408  -38.8143 H         1 UNK         0.0787 
    105 H105       23.4675  -30.0531  -40.2786 H         1 UNK         0.3055 
    106 H106       23.0355  -31.1329  -37.6707 H         1 UNK         0.1106 
    107 H107       24.5481  -32.9316  -38.4150 H         1 UNK         0.0828 
    108 H108       24.3521  -32.4632  -40.0963 H         1 UNK         0.0828 
    109 H109       25.1695  -31.3834  -38.9668 H         1 UNK         0.0828 
    110 H110       21.3593  -31.7356  -40.6916 H         1 UNK         0.2931 
    111 H111       20.0524  -34.1653  -39.7321 H         1 UNK         0.0412 
    112 H112       19.5556  -31.0088  -38.6915 H         1 UNK         0.3472 
    113 H113       17.8484  -31.1740  -38.3667 H         1 UNK         0.3472 
    114 H114       20.5470  -34.1008  -42.0850 H         1 UNK         0.0970 
    115 H115       18.8336  -34.1919  -41.8477 H         1 UNK         0.0970 
    116 H116       17.7526  -33.3027  -43.9186 H         1 UNK         0.0612 
    117 H117       17.1121  -32.2715  -42.6555 H         1 UNK         0.0612 
@<TRIPOS>BOND
     1    1    2 1    
     2    1   62 1    
     3    1   63 1    
     4    1   64 1    
     5    2    3 2    
     6    2    4 am   BACKBONE|DICT|INTERRES
     7    4    5 1    
     8    4   65 1    
     9    5    6 1    
    10    5   25 1    
    11    5   66 1    
    12    6    7 1    
    13    6   67 1    
    14    6   68 1    
    15    7    8 1    
    16    8    9 1    
    17    8   69 1    
    18    8   70 1    
    19    9   10 ar   
    20    9   14 ar   
    21   10   11 ar   
    22   10   71 1    
    23   11   12 ar   
    24   11   61 1    
    25   12   13 ar   
    26   12   72 1    
    27   13   14 ar   
    28   13   15 1    
    29   14   73 1    
    30   15   16 1    
    31   15   74 1    
    32   15   75 1    
    33   16   17 1    
    34   17   18 1    
    35   17   76 1    
    36   17   77 1    
    37   18   19 1    
    38   18   27 1    
    39   18   78 1    
    40   19   20 am   BACKBONE|DICT|INTERRES
    41   19   79 1    
    42   20   21 2    
    43   20   22 1    
    44   22   23 1    
    45   22   24 1    
    46   22   80 1    
    47   23   81 1    
    48   23   82 1    
    49   23   83 1    
    50   24   25 am   BACKBONE|DICT|INTERRES
    51   24   84 1    
    52   25   26 2    
    53   27   28 2    
    54   27   29 am   BACKBONE|DICT|INTERRES
    55   29   30 1    
    56   29   85 1    
    57   30   31 1    
    58   30   32 1    
    59   30   86 1    
    60   31   87 1    
    61   31   88 1    
    62   31   89 1    
    63   32   33 2    
    64   32   34 am   BACKBONE|DICT|INTERRES
    65   34   35 1    
    66   34   90 1    
    67   35   36 1    
    68   35   37 1    
    69   35   91 1    
    70   36   92 1    
    71   36   93 1    
    72   36   94 1    
    73   37   38 2    
    74   37   39 am   BACKBONE|DICT|INTERRES
    75   39   40 1    
    76   39   95 1    
    77   40   41 1    
    78   40   42 1    
    79   40   96 1    
    80   41   97 1    
    81   41   98 1    
    82   41   99 1    
    83   42   43 2    
    84   42   44 am   BACKBONE|DICT|INTERRES
    85   44   45 1    
    86   44  100 1    
    87   45   46 1    
    88   45   47 1    
    89   45  101 1    
    90   46  102 1    
    91   46  103 1    
    92   46  104 1    
    93   47   48 2    
    94   47   49 am   BACKBONE|DICT|INTERRES
    95   49   50 1    
    96   49  105 1    
    97   50   51 1    
    98   50   52 1    
    99   50  106 1    
   100   51  107 1    
   101   51  108 1    
   102   51  109 1    
   103   52   53 2    
   104   52   54 am   BACKBONE|DICT|INTERRES
   105   54   55 1    
   106   54  110 1    
   107   55   56 1    
   108   55   59 1    
   109   55  111 1    
   110   56   57 am   BACKBONE|DICT|INTERRES
   111   56   58 2    
   112   57  112 1    
   113   57  113 1    
   114   59   60 1    
   115   59  114 1    
   116   59  115 1    
   117   60   61 1    
   118   61  116 1    
   119   61  117 1    
@<TRIPOS>SUBSTRUCTURE
     1 UNK         1 GROUP             0       ****    0 ROOT    
