@<TRIPOS>MOLECULE
3R8
117   119    1
SMALL
USER_CHARGES


@<TRIPOS>ATOM
      1 CA         15.2814  -23.4624  -47.4014 C.3       0 UNK        -0.2013 
      2 C          16.6595  -23.4772  -46.7569 C.2       0 UNK         0.4866 
      3 O          17.0184  -22.5303  -46.0556 O.2       0 UNK        -0.5176 
      4 N          17.4379  -24.5391  -46.9962 N.am      1 UNK        -0.4884 
      5 CA         18.7564  -24.7656  -46.3963 C.3       1 UNK         0.0853 
      6 C6         19.5902  -25.7712  -47.2354 C.3       10 UNK        -0.0849 
      7 S7         18.8089  -27.4129  -47.4492 S.3       10 UNK        -0.2776 
      8 C8         19.8425  -28.4167  -46.3356 C.3       10 UNK         0.0316 
      9 C9         19.0962  -29.6040  -45.7452 C.ar      10 UNK        -0.0863 
     10 C10        19.6188  -30.8956  -45.8575 C.ar      10 UNK        -0.1009 
     11 C11        19.0049  -31.9691  -45.2051 C.ar      10 UNK        -0.0712 
     12 C12        17.8468  -31.7490  -44.4547 C.ar      10 UNK        -0.0894 
     13 C13        17.3088  -30.4645  -44.3419 C.ar      10 UNK        -0.0745 
     14 C14        17.9292  -29.4001  -45.0036 C.ar      10 UNK        -0.0972 
     15 C15        16.0784  -30.2260  -43.4769 C.3       10 UNK         0.0209 
     16 S16        16.3364  -28.9166  -42.2342 S.3       10 UNK        -0.2568 
     17 C17        17.7699  -29.5399  -41.2860 C.3       10 UNK        -0.0983 
     18 CA         19.1337  -28.9513  -41.7454 C.3       3 UNK         0.0876 
     19 N          19.0907  -27.4993  -41.9454 N.am      3 UNK        -0.4424 
     20 C          20.0417  -26.7748  -42.5475 C.2       2 UNK         0.4918 
     21 O          21.0990  -27.2350  -42.9848 O.2       2 UNK        -0.4875 
     22 CA         19.7475  -25.2741  -42.7019 C.3       2 UNK         0.0481 
     23 CB         20.8103  -24.4185  -41.9941 C.3       2 UNK        -0.1831 
     24 N          19.6716  -24.9010  -44.1159 N.am      2 UNK        -0.4498 
     25 C          18.6312  -25.1846  -44.9124 C.2       1 UNK         0.5027 
     26 O          17.6110  -25.7560  -44.5169 O.2       1 UNK        -0.4969 
     27 C          20.2512  -29.3519  -40.7674 C.2       3 UNK         0.5005 
     28 O          21.0332  -30.2546  -41.0642 O.2       3 UNK        -0.5279 
     29 N          20.3132  -28.6518  -39.6285 N.am      4 UNK        -0.4463 
     30 CA         21.3466  -28.8098  -38.6096 C.3       4 UNK         0.0283 
     31 CB         20.7622  -28.4130  -37.2443 C.3       4 UNK        -0.1875 
     32 C          22.5663  -27.9383  -38.9384 C.2       4 UNK         0.4949 
     33 O          22.4285  -26.9145  -39.6124 O.2       4 UNK        -0.5039 
     34 N          23.7290  -28.3500  -38.4163 N.am      5 UNK        -0.4663 
     35 CA         25.0443  -27.6928  -38.4584 C.3       5 UNK         0.0242 
     36 CB         25.0129  -26.3313  -37.7350 C.3       5 UNK        -0.1982 
     37 C          25.6713  -27.5611  -39.8579 C.2       5 UNK         0.5017 
     38 O          26.8122  -27.9864  -40.0390 O.2       5 UNK        -0.5012 
     39 N          24.9370  -26.9674  -40.8069 N.am      6 UNK        -0.4439 
     40 CA         25.3662  -26.7518  -42.1887 C.3       6 UNK         0.0297 
     41 CB         24.4854  -25.6831  -42.8559 C.3       6 UNK        -0.2006 
     42 C          25.3641  -28.0687  -42.9760 C.2       6 UNK         0.4892 
     43 O          26.4319  -28.5403  -43.3687 O.2       6 UNK        -0.5089 
     44 N          24.1710  -28.6480  -43.1706 N.am      7 UNK        -0.4243 
     45 CA         24.0086  -29.9687  -43.7818 C.3       7 UNK         0.0196 
     46 CB         22.5965  -30.0892  -44.3686 C.3       7 UNK        -0.2007 
     47 C          24.2887  -31.1057  -42.7849 C.2       7 UNK         0.5020 
     48 O          24.7943  -32.1512  -43.1930 O.2       7 UNK        -0.5147 
     49 N          23.9640  -30.8695  -41.5037 N.am      8 UNK        -0.4734 
     50 CA         24.0749  -31.7929  -40.3660 C.3       8 UNK         0.0238 
     51 CB         25.5544  -32.0862  -40.0395 C.3       8 UNK        -0.1912 
     52 C          23.2216  -33.0670  -40.5391 C.2       8 UNK         0.5038 
     53 O          23.6472  -34.1565  -40.1493 O.2       8 UNK        -0.5046 
     54 N          22.0314  -32.8972  -41.1235 N.am      9 UNK        -0.4200 
     55 CA         21.0250  -33.9433  -41.3290 C.3       9 UNK         0.0839 
     56 C          20.2138  -34.2112  -40.0342 C.2       9 UNK         0.5513 
     57 N          19.7412  -35.4357  -39.8462 N.am      9 UNK        -0.7519 
     58 O          19.9757  -33.3204  -39.2209 O.2       9 UNK        -0.4960 
     59 C59        20.0869  -33.5877  -42.5102 C.3       10 UNK        -0.0876 
     60 S60        20.9772  -33.5700  -44.1033 S.3       10 UNK        -0.2414 
     61 C61        19.6106  -33.3617  -45.2879 C.3       10 UNK         0.0169 
     62 H62        15.1036  -24.3529  -48.0041 H         1 UNK         0.0903 
     63 H63        14.5094  -23.4130  -46.6340 H         1 UNK         0.0903 
     64 H64        15.1776  -22.5903  -48.0465 H         1 UNK         0.0903 
     65 H65        17.0824  -25.3098  -47.5449 H         1 UNK         0.3096 
     66 H66        19.2874  -23.8106  -46.4124 H         1 UNK         0.1121 
     67 H67        19.7483  -25.3559  -48.2321 H         1 UNK         0.0849 
     68 H68        20.5920  -25.8829  -46.8165 H         1 UNK         0.0849 
     69 H69        20.7294  -28.7412  -46.8817 H         1 UNK         0.0865 
     70 H70        20.1988  -27.8064  -45.5054 H         1 UNK         0.0865 
     71 H71        20.5272  -31.0644  -46.4192 H         1 UNK         0.1346 
     72 H72        17.3776  -32.5769  -43.9409 H         1 UNK         0.1412 
     73 H73        17.5299  -28.4000  -44.8994 H         1 UNK         0.1426 
     74 H74        15.7769  -31.1406  -42.9638 H         1 UNK         0.0716 
     75 H75        15.2445  -29.9423  -44.1202 H         1 UNK         0.0716 
     76 H76        17.7912  -30.6301  -41.3413 H         1 UNK         0.0695 
     77 H77        17.5798  -29.2976  -40.2386 H         1 UNK         0.0695 
     78 H78        19.3926  -29.4004  -42.7053 H         1 UNK         0.0983 
     79 H79        18.2300  -27.0454  -41.6754 H         1 UNK         0.3095 
     80 H80        18.7866  -25.0532  -42.2317 H         1 UNK         0.0454 
     81 H81        20.9545  -24.7450  -40.9629 H         1 UNK         0.0851 
     82 H82        20.5153  -23.3697  -41.9635 H         1 UNK         0.0851 
     83 H83        21.7771  -24.4756  -42.4913 H         1 UNK         0.0851 
     84 H84        20.4907  -24.4602  -44.5088 H         1 UNK         0.2976 
     85 H85        19.6769  -27.8776  -39.5079 H         1 UNK         0.3116 
     86 H86        21.6544  -29.8570  -38.5667 H         1 UNK         0.0646 
     87 H87        19.8960  -29.0246  -36.9908 H         1 UNK         0.0847 
     88 H88        20.4521  -27.3673  -37.2245 H         1 UNK         0.0847 
     89 H89        21.4954  -28.5487  -36.4481 H         1 UNK         0.0847 
     90 H90        23.7139  -29.2078  -37.8815 H         1 UNK         0.3040 
     91 H91        25.7114  -28.3416  -37.8876 H         1 UNK         0.1015 
     92 H92        26.0087  -25.8873  -37.6983 H         1 UNK         0.0786 
     93 H93        24.6689  -26.4382  -36.7063 H         1 UNK         0.0786 
     94 H94        24.3586  -25.6153  -38.2332 H         1 UNK         0.0786 
     95 H95        23.9867  -26.7014  -40.5534 H         1 UNK         0.3172 
     96 H96        26.3903  -26.3723  -42.1721 H         1 UNK         0.0595 
     97 H97        24.8116  -25.4937  -43.8793 H         1 UNK         0.0839 
     98 H98        24.5360  -24.7357  -42.3190 H         1 UNK         0.0839 
     99 H99        23.4412  -25.9878  -42.8995 H         1 UNK         0.0839 
    100 H100       23.3307  -28.1797  -42.8546 H         1 UNK         0.2998 
    101 H101       24.7200  -30.0669  -44.6050 H         1 UNK         0.0822 
    102 H102       22.4700  -31.0489  -44.8697 H         1 UNK         0.0787 
    103 H103       22.4101  -29.3092  -45.1056 H         1 UNK         0.0787 
    104 H104       21.8245  -30.0165  -43.6024 H         1 UNK         0.0787 
    105 H105       23.4876  -30.0000  -41.3099 H         1 UNK         0.3055 
    106 H106       23.6484  -31.2722  -39.5081 H         1 UNK         0.1106 
    107 H107       26.1204  -31.1644  -39.9038 H         1 UNK         0.0828 
    108 H108       25.6454  -32.6608  -39.1170 H         1 UNK         0.0828 
    109 H109       26.0364  -32.6627  -40.8295 H         1 UNK         0.0828 
    110 H110       21.7281  -31.9460  -41.3198 H         1 UNK         0.2931 
    111 H111       21.5491  -34.8670  -41.5844 H         1 UNK         0.0412 
    112 H112       19.9245  -36.1735  -40.5090 H         1 UNK         0.3472 
    113 H113       19.1992  -35.6301  -39.0184 H         1 UNK         0.3472 
    114 H114       19.6230  -32.6129  -42.3477 H         1 UNK         0.0970 
    115 H115       19.2732  -34.3113  -42.5878 H         1 UNK         0.0970 
    116 H116       19.9904  -33.5345  -46.2959 H         1 UNK         0.0612 
    117 H117       18.8526  -34.1265  -45.1116 H         1 UNK         0.0612 
@<TRIPOS>BOND
     1    1    2 1    
     2    1   62 1    
     3    1   63 1    
     4    1   64 1    
     5    2    3 2    
     6    2    4 am   BACKBONE|DICT|INTERRES
     7    4    5 1    
     8    4   65 1    
     9    5    6 1    
    10    5   25 1    
    11    5   66 1    
    12    6    7 1    
    13    6   67 1    
    14    6   68 1    
    15    7    8 1    
    16    8    9 1    
    17    8   69 1    
    18    8   70 1    
    19    9   10 ar   
    20    9   14 ar   
    21   10   11 ar   
    22   10   71 1    
    23   11   12 ar   
    24   11   61 1    
    25   12   13 ar   
    26   12   72 1    
    27   13   14 ar   
    28   13   15 1    
    29   14   73 1    
    30   15   16 1    
    31   15   74 1    
    32   15   75 1    
    33   16   17 1    
    34   17   18 1    
    35   17   76 1    
    36   17   77 1    
    37   18   19 1    
    38   18   27 1    
    39   18   78 1    
    40   19   20 am   BACKBONE|DICT|INTERRES
    41   19   79 1    
    42   20   21 2    
    43   20   22 1    
    44   22   23 1    
    45   22   24 1    
    46   22   80 1    
    47   23   81 1    
    48   23   82 1    
    49   23   83 1    
    50   24   25 am   BACKBONE|DICT|INTERRES
    51   24   84 1    
    52   25   26 2    
    53   27   28 2    
    54   27   29 am   BACKBONE|DICT|INTERRES
    55   29   30 1    
    56   29   85 1    
    57   30   31 1    
    58   30   32 1    
    59   30   86 1    
    60   31   87 1    
    61   31   88 1    
    62   31   89 1    
    63   32   33 2    
    64   32   34 am   BACKBONE|DICT|INTERRES
    65   34   35 1    
    66   34   90 1    
    67   35   36 1    
    68   35   37 1    
    69   35   91 1    
    70   36   92 1    
    71   36   93 1    
    72   36   94 1    
    73   37   38 2    
    74   37   39 am   BACKBONE|DICT|INTERRES
    75   39   40 1    
    76   39   95 1    
    77   40   41 1    
    78   40   42 1    
    79   40   96 1    
    80   41   97 1    
    81   41   98 1    
    82   41   99 1    
    83   42   43 2    
    84   42   44 am   BACKBONE|DICT|INTERRES
    85   44   45 1    
    86   44  100 1    
    87   45   46 1    
    88   45   47 1    
    89   45  101 1    
    90   46  102 1    
    91   46  103 1    
    92   46  104 1    
    93   47   48 2    
    94   47   49 am   BACKBONE|DICT|INTERRES
    95   49   50 1    
    96   49  105 1    
    97   50   51 1    
    98   50   52 1    
    99   50  106 1    
   100   51  107 1    
   101   51  108 1    
   102   51  109 1    
   103   52   53 2    
   104   52   54 am   BACKBONE|DICT|INTERRES
   105   54   55 1    
   106   54  110 1    
   107   55   56 1    
   108   55   59 1    
   109   55  111 1    
   110   56   57 am   BACKBONE|DICT|INTERRES
   111   56   58 2    
   112   57  112 1    
   113   57  113 1    
   114   59   60 1    
   115   59  114 1    
   116   59  115 1    
   117   60   61 1    
   118   61  116 1    
   119   61  117 1    
@<TRIPOS>SUBSTRUCTURE
     1 UNK         1 GROUP             0       ****    0 ROOT    
