@<TRIPOS>MOLECULE
3R8
117   119    1
SMALL
USER_CHARGES


@<TRIPOS>ATOM
      1 CA         13.2087  -23.1089  -47.4316 C.3       0 UNK        -0.2013 
      2 C          14.0242  -24.3916  -47.3645 C.2       0 UNK         0.4866 
      3 O          14.0120  -25.1757  -48.3143 O.2       0 UNK        -0.5176 
      4 N          14.7249  -24.6167  -46.2466 N.am      1 UNK        -0.4884 
      5 CA         15.5995  -25.7725  -46.0272 C.3       1 UNK         0.0853 
      6 C6         16.0522  -25.8802  -44.5506 C.3       10 UNK        -0.0849 
      7 S7         14.6913  -26.1600  -43.3693 S.3       10 UNK        -0.2776 
      8 C8         15.1608  -27.7659  -42.6212 C.3       10 UNK         0.0316 
      9 C9         16.5733  -27.8406  -42.0287 C.ar      10 UNK        -0.0863 
     10 C10        17.1945  -29.0901  -41.9272 C.ar      10 UNK        -0.1009 
     11 C11        18.4895  -29.2089  -41.4129 C.ar      10 UNK        -0.0712 
     12 C12        19.1711  -28.0649  -40.9938 C.ar      10 UNK        -0.0894 
     13 C13        18.5744  -26.8059  -41.1067 C.ar      10 UNK        -0.0745 
     14 C14        17.2696  -26.7035  -41.5974 C.ar      10 UNK        -0.0972 
     15 C15        19.3449  -25.5500  -40.7254 C.3       10 UNK         0.0209 
     16 S16        20.8653  -25.3491  -41.7123 S.3       10 UNK        -0.2568 
     17 C17        20.2290  -25.2476  -43.4262 C.3       10 UNK        -0.0983 
     18 CA         20.3813  -26.5595  -44.2443 C.3       3 UNK         0.0876 
     19 N          19.7774  -26.4249  -45.5715 N.am      3 UNK        -0.4424 
     20 C          19.5773  -27.4278  -46.4379 C.2       2 UNK         0.4918 
     21 O          19.9116  -28.5950  -46.2314 O.2       2 UNK        -0.4875 
     22 CA         18.7686  -27.0722  -47.6984 C.3       2 UNK         0.0481 
     23 CB         18.8253  -28.1727  -48.7739 C.3       2 UNK        -0.1831 
     24 N          17.3807  -26.8747  -47.2820 N.am      2 UNK        -0.4498 
     25 C          16.8659  -25.6991  -46.9018 C.2       1 UNK         0.5027 
     26 O          17.4159  -24.6123  -47.1002 O.2       1 UNK        -0.4969 
     27 C          21.8504  -27.0233  -44.3395 C.2       3 UNK         0.5005 
     28 O          22.6381  -26.4260  -45.0780 O.2       3 UNK        -0.5279 
     29 N          22.1854  -28.0521  -43.5555 N.am      4 UNK        -0.4463 
     30 CA         23.5324  -28.5750  -43.3537 C.3       4 UNK         0.0283 
     31 CB         23.8242  -29.6947  -44.3694 C.3       4 UNK        -0.1875 
     32 C          23.6582  -29.0229  -41.8916 C.2       4 UNK         0.4949 
     33 O          24.0756  -30.1496  -41.6167 O.2       4 UNK        -0.5039 
     34 N          23.2663  -28.1282  -40.9705 N.am      5 UNK        -0.4663 
     35 CA         23.2054  -28.3551  -39.5204 C.3       5 UNK         0.0242 
     36 CB         22.6493  -27.1019  -38.8268 C.3       5 UNK        -0.1982 
     37 C          24.5397  -28.7675  -38.8771 C.2       5 UNK         0.5017 
     38 O          24.5236  -29.5150  -37.9000 O.2       5 UNK        -0.5012 
     39 N          25.6638  -28.3326  -39.4644 N.am      6 UNK        -0.4439 
     40 CA         27.0246  -28.7246  -39.0790 C.3       6 UNK         0.0297 
     41 CB         28.0370  -27.8996  -39.8896 C.3       6 UNK        -0.2006 
     42 C          27.3102  -30.2319  -39.2392 C.2       6 UNK         0.4892 
     43 O          28.1633  -30.7582  -38.5241 O.2       6 UNK        -0.5089 
     44 N          26.5853  -30.8939  -40.1509 N.am      7 UNK        -0.4243 
     45 CA         26.6081  -32.3412  -40.3698 C.3       7 UNK         0.0196 
     46 CB         26.8516  -32.5967  -41.8685 C.3       7 UNK        -0.2007 
     47 C          25.2937  -33.0028  -39.9131 C.2       7 UNK         0.5020 
     48 O          25.0885  -34.1821  -40.2021 O.2       7 UNK        -0.5147 
     49 N          24.4009  -32.2347  -39.2649 N.am      8 UNK        -0.4734 
     50 CA         23.0255  -32.5855  -38.8771 C.3       8 UNK         0.0238 
     51 CB         23.0403  -33.6071  -37.7207 C.3       8 UNK        -0.1912 
     52 C          22.1463  -33.0453  -40.0616 C.2       8 UNK         0.5038 
     53 O          21.2248  -33.8390  -39.8632 O.2       8 UNK        -0.5046 
     54 N          22.4678  -32.5628  -41.2711 N.am      9 UNK        -0.4200 
     55 CA         21.9346  -33.0224  -42.5639 C.3       9 UNK         0.0839 
     56 C          22.2406  -34.5164  -42.9005 C.2       9 UNK         0.5513 
     57 N          23.2220  -35.1554  -42.2739 N.am      9 UNK        -0.7519 
     58 O          21.6027  -35.1035  -43.7711 O.2       9 UNK        -0.4960 
     59 C59        20.4429  -32.6411  -42.7788 C.3       10 UNK        -0.0876 
     60 S60        20.1833  -30.8358  -42.8253 S.3       10 UNK        -0.2414 
     61 C61        19.1636  -30.5693  -41.3459 C.3       10 UNK         0.0169 
     62 H62        13.2958  -22.5216  -46.5176 H         1 UNK         0.0903 
     63 H63        13.5473  -22.4928  -48.2641 H         1 UNK         0.0903 
     64 H64        12.1553  -23.3414  -47.5855 H         1 UNK         0.0903 
     65 H65        14.7037  -23.9385  -45.4983 H         1 UNK         0.3096 
     66 H66        15.0420  -26.6733  -46.2945 H         1 UNK         0.1121 
     67 H67        16.7781  -26.6886  -44.4432 H         1 UNK         0.0849 
     68 H68        16.5771  -24.9729  -44.2439 H         1 UNK         0.0849 
     69 H69        14.4437  -28.0035  -41.8346 H         1 UNK         0.0865 
     70 H70        15.0437  -28.5366  -43.3849 H         1 UNK         0.0865 
     71 H71        16.6734  -29.9767  -42.2626 H         1 UNK         0.1346 
     72 H72        20.1787  -28.1511  -40.6121 H         1 UNK         0.1412 
     73 H73        16.8088  -25.7283  -41.6654 H         1 UNK         0.1426 
     74 H74        19.6082  -25.5996  -39.6683 H         1 UNK         0.0716 
     75 H75        18.7275  -24.6583  -40.8455 H         1 UNK         0.0716 
     76 H76        19.1796  -24.9506  -43.3921 H         1 UNK         0.0695 
     77 H77        20.7523  -24.4307  -43.9267 H         1 UNK         0.0695 
     78 H78        19.8114  -27.3376  -43.7314 H         1 UNK         0.0983 
     79 H79        19.4786  -25.4969  -45.8364 H         1 UNK         0.3095 
     80 H80        19.1815  -26.1572  -48.1285 H         1 UNK         0.0454 
     81 H81        18.4185  -29.1186  -48.4142 H         1 UNK         0.0851 
     82 H82        18.2639  -27.8848  -49.6627 H         1 UNK         0.0851 
     83 H83        19.8538  -28.3578  -49.0861 H         1 UNK         0.0851 
     84 H84        16.8724  -27.7184  -47.0550 H         1 UNK         0.2976 
     85 H85        21.4648  -28.4991  -43.0027 H         1 UNK         0.3116 
     86 H86        24.2640  -27.7774  -43.4984 H         1 UNK         0.0646 
     87 H87        24.8059  -30.1385  -44.1992 H         1 UNK         0.0847 
     88 H88        23.8140  -29.3116  -45.3898 H         1 UNK         0.0847 
     89 H89        23.0846  -30.4917  -44.3088 H         1 UNK         0.0847 
     90 H90        22.9429  -27.2266  -41.2950 H         1 UNK         0.3040 
     91 H91        22.5055  -29.1763  -39.3520 H         1 UNK         0.1015 
     92 H92        21.6329  -26.8853  -39.1508 H         1 UNK         0.0786 
     93 H93        23.2614  -26.2219  -39.0285 H         1 UNK         0.0786 
     94 H94        22.6152  -27.2345  -37.7443 H         1 UNK         0.0786 
     95 H95        25.5717  -27.7213  -40.2629 H         1 UNK         0.3172 
     96 H96        27.1513  -28.4796  -38.0224 H         1 UNK         0.0595 
     97 H97        27.9076  -26.8306  -39.7191 H         1 UNK         0.0839 
     98 H98        27.9448  -28.0845  -40.9606 H         1 UNK         0.0839 
     99 H99        29.0602  -28.1485  -39.6039 H         1 UNK         0.0839 
    100 H100       25.8869  -30.3859  -40.6844 H         1 UNK         0.2998 
    101 H101       27.4167  -32.8059  -39.8022 H         1 UNK         0.0822 
    102 H102       27.7817  -32.1366  -42.2022 H         1 UNK         0.0787 
    103 H103       26.9268  -33.6642  -42.0802 H         1 UNK         0.0787 
    104 H104       26.0414  -32.1979  -42.4809 H         1 UNK         0.0787 
    105 H105       24.6777  -31.2872  -39.0362 H         1 UNK         0.3055 
    106 H106       22.5671  -31.6690  -38.5028 H         1 UNK         0.1106 
    107 H107       23.4312  -34.5735  -38.0409 H         1 UNK         0.0828 
    108 H108       23.6519  -33.2560  -36.8897 H         1 UNK         0.0828 
    109 H109       22.0354  -33.7756  -37.3316 H         1 UNK         0.0828 
    110 H110       23.2104  -31.8728  -41.3307 H         1 UNK         0.2931 
    111 H111       22.5111  -32.4758  -43.3089 H         1 UNK         0.0412 
    112 H112       23.4115  -36.1153  -42.5141 H         1 UNK         0.3472 
    113 H113       23.7755  -34.7013  -41.5536 H         1 UNK         0.3472 
    114 H114       19.8127  -33.1035  -42.0182 H         1 UNK         0.0970 
    115 H115       20.0820  -33.0252  -43.7343 H         1 UNK         0.0970 
    116 H116       18.4091  -31.3536  -41.2685 H         1 UNK         0.0612 
    117 H117       19.7886  -30.6453  -40.4548 H         1 UNK         0.0612 
@<TRIPOS>BOND
     1    1    2 1    
     2    1   62 1    
     3    1   63 1    
     4    1   64 1    
     5    2    3 2    
     6    2    4 am   BACKBONE|DICT|INTERRES
     7    4    5 1    
     8    4   65 1    
     9    5    6 1    
    10    5   25 1    
    11    5   66 1    
    12    6    7 1    
    13    6   67 1    
    14    6   68 1    
    15    7    8 1    
    16    8    9 1    
    17    8   69 1    
    18    8   70 1    
    19    9   10 ar   
    20    9   14 ar   
    21   10   11 ar   
    22   10   71 1    
    23   11   12 ar   
    24   11   61 1    
    25   12   13 ar   
    26   12   72 1    
    27   13   14 ar   
    28   13   15 1    
    29   14   73 1    
    30   15   16 1    
    31   15   74 1    
    32   15   75 1    
    33   16   17 1    
    34   17   18 1    
    35   17   76 1    
    36   17   77 1    
    37   18   19 1    
    38   18   27 1    
    39   18   78 1    
    40   19   20 am   BACKBONE|DICT|INTERRES
    41   19   79 1    
    42   20   21 2    
    43   20   22 1    
    44   22   23 1    
    45   22   24 1    
    46   22   80 1    
    47   23   81 1    
    48   23   82 1    
    49   23   83 1    
    50   24   25 am   BACKBONE|DICT|INTERRES
    51   24   84 1    
    52   25   26 2    
    53   27   28 2    
    54   27   29 am   BACKBONE|DICT|INTERRES
    55   29   30 1    
    56   29   85 1    
    57   30   31 1    
    58   30   32 1    
    59   30   86 1    
    60   31   87 1    
    61   31   88 1    
    62   31   89 1    
    63   32   33 2    
    64   32   34 am   BACKBONE|DICT|INTERRES
    65   34   35 1    
    66   34   90 1    
    67   35   36 1    
    68   35   37 1    
    69   35   91 1    
    70   36   92 1    
    71   36   93 1    
    72   36   94 1    
    73   37   38 2    
    74   37   39 am   BACKBONE|DICT|INTERRES
    75   39   40 1    
    76   39   95 1    
    77   40   41 1    
    78   40   42 1    
    79   40   96 1    
    80   41   97 1    
    81   41   98 1    
    82   41   99 1    
    83   42   43 2    
    84   42   44 am   BACKBONE|DICT|INTERRES
    85   44   45 1    
    86   44  100 1    
    87   45   46 1    
    88   45   47 1    
    89   45  101 1    
    90   46  102 1    
    91   46  103 1    
    92   46  104 1    
    93   47   48 2    
    94   47   49 am   BACKBONE|DICT|INTERRES
    95   49   50 1    
    96   49  105 1    
    97   50   51 1    
    98   50   52 1    
    99   50  106 1    
   100   51  107 1    
   101   51  108 1    
   102   51  109 1    
   103   52   53 2    
   104   52   54 am   BACKBONE|DICT|INTERRES
   105   54   55 1    
   106   54  110 1    
   107   55   56 1    
   108   55   59 1    
   109   55  111 1    
   110   56   57 am   BACKBONE|DICT|INTERRES
   111   56   58 2    
   112   57  112 1    
   113   57  113 1    
   114   59   60 1    
   115   59  114 1    
   116   59  115 1    
   117   60   61 1    
   118   61  116 1    
   119   61  117 1    
@<TRIPOS>SUBSTRUCTURE
     1 UNK         1 GROUP             0       ****    0 ROOT    
