@<TRIPOS>MOLECULE
3R8
117   119    1
SMALL
USER_CHARGES


@<TRIPOS>ATOM
      1 CA         12.5906  -23.8804  -46.8134 C.3       0 UNK        -0.2013 
      2 C          14.0225  -24.3420  -47.0402 C.2       0 UNK         0.4866 
      3 O          14.6306  -23.9826  -48.0490 O.2       0 UNK        -0.5176 
      4 N          14.5663  -25.1316  -46.1104 N.am      1 UNK        -0.4884 
      5 CA         15.9223  -25.6767  -46.1463 C.3       1 UNK         0.0853 
      6 C6         16.0370  -26.9338  -47.0520 C.3       10 UNK        -0.0849 
      7 S7         14.9012  -28.2952  -46.5892 S.3       10 UNK        -0.2776 
      8 C8         15.9486  -29.7744  -46.7648 C.3       10 UNK         0.0316 
      9 C9         17.1721  -29.7569  -45.8567 C.ar      10 UNK        -0.0863 
     10 C10        17.0332  -29.8426  -44.4677 C.ar      10 UNK        -0.1009 
     11 C11        18.1607  -29.8743  -43.6391 C.ar      10 UNK        -0.0712 
     12 C12        19.4349  -29.8306  -44.2158 C.ar      10 UNK        -0.0894 
     13 C13        19.5860  -29.7353  -45.6034 C.ar      10 UNK        -0.0745 
     14 C14        18.4507  -29.6934  -46.4155 C.ar      10 UNK        -0.0972 
     15 C15        20.9668  -29.7188  -46.2436 C.3       10 UNK         0.0209 
     16 S16        21.7067  -28.0547  -46.2457 S.3       10 UNK        -0.2568 
     17 C17        22.4448  -27.9838  -44.5800 C.3       10 UNK        -0.0983 
     18 CA         21.9203  -26.8152  -43.7115 C.3       3 UNK         0.0876 
     19 N          20.4498  -26.7522  -43.6525 N.am      3 UNK        -0.4424 
     20 C          19.7682  -25.6950  -43.1923 C.2       2 UNK         0.4918 
     21 O          20.2981  -24.6288  -42.8759 O.2       2 UNK        -0.4875 
     22 CA         18.2480  -25.8562  -43.0750 C.3       2 UNK         0.0481 
     23 CB         17.6488  -24.8501  -42.0644 C.3       2 UNK        -0.1831 
     24 N          17.6497  -25.7059  -44.4006 N.am      2 UNK        -0.4498 
     25 C          16.3627  -25.9317  -44.6939 C.2       1 UNK         0.5027 
     26 O          15.5245  -26.3067  -43.8679 O.2       1 UNK        -0.4969 
     27 C          22.5614  -26.9006  -42.3072 C.2       3 UNK         0.5005 
     28 O          23.7230  -26.5223  -42.1473 O.2       3 UNK        -0.5279 
     29 N          21.7958  -27.4086  -41.3272 N.am      4 UNK        -0.4463 
     30 CA         22.1714  -27.6291  -39.9293 C.3       4 UNK         0.0283 
     31 CB         22.3692  -26.2797  -39.2009 C.3       4 UNK        -0.1875 
     32 C          23.3590  -28.6034  -39.8061 C.2       4 UNK         0.4949 
     33 O          23.3710  -29.6301  -40.4918 O.2       4 UNK        -0.5039 
     34 N          24.3265  -28.2826  -38.9364 N.am      5 UNK        -0.4663 
     35 CA         25.4950  -29.1027  -38.5976 C.3       5 UNK         0.0242 
     36 CB         26.3285  -28.3738  -37.5318 C.3       5 UNK        -0.1982 
     37 C          26.3824  -29.4994  -39.7903 C.2       5 UNK         0.5017 
     38 O          27.0294  -30.5440  -39.7231 O.2       5 UNK        -0.5012 
     39 N          26.3596  -28.7050  -40.8712 N.am      6 UNK        -0.4439 
     40 CA         27.0656  -28.9739  -42.1287 C.3       6 UNK         0.0297 
     41 CB         26.9253  -27.7606  -43.0615 C.3       6 UNK        -0.2006 
     42 C          26.6025  -30.2567  -42.8472 C.2       6 UNK         0.4892 
     43 O          27.3902  -30.8325  -43.5986 O.2       6 UNK        -0.5089 
     44 N          25.3574  -30.6852  -42.5972 N.am      7 UNK        -0.4243 
     45 CA         24.7782  -31.9298  -43.1102 C.3       7 UNK         0.0196 
     46 CB         23.5787  -31.5769  -44.0056 C.3       7 UNK        -0.2007 
     47 C          24.3552  -32.8768  -41.9725 C.2       7 UNK         0.5020 
     48 O          23.6475  -33.8479  -42.2410 O.2       7 UNK        -0.5147 
     49 N          24.7538  -32.5696  -40.7259 N.am      8 UNK        -0.4734 
     50 CA         24.3321  -33.2191  -39.4733 C.3       8 UNK         0.0238 
     51 CB         24.8942  -34.6538  -39.3830 C.3       8 UNK        -0.1912 
     52 C          22.8048  -33.1579  -39.2398 C.2       8 UNK         0.5038 
     53 O          22.2361  -34.0659  -38.6310 O.2       8 UNK        -0.5046 
     54 N          22.1764  -32.0861  -39.7368 N.am      9 UNK        -0.4200 
     55 CA         20.7319  -31.8227  -39.7015 C.3       9 UNK         0.0839 
     56 C          20.2996  -30.9246  -38.5022 C.2       9 UNK         0.5513 
     57 N          21.2019  -30.5172  -37.6164 N.am      9 UNK        -0.7519 
     58 O          19.1255  -30.5979  -38.3572 O.2       9 UNK        -0.4960 
     59 C59        20.2780  -31.2657  -41.0802 C.3       10 UNK        -0.0876 
     60 S60        18.5140  -31.5620  -41.4531 S.3       10 UNK        -0.2414 
     61 C61        17.9931  -29.9502  -42.1254 C.3       10 UNK         0.0169 
     62 H62        12.1772  -24.2758  -45.8857 H         1 UNK         0.0903 
     63 H63        12.5495  -22.7925  -46.7669 H         1 UNK         0.0903 
     64 H64        11.9557  -24.2112  -47.6350 H         1 UNK         0.0903 
     65 H65        14.0495  -25.3939  -45.2793 H         1 UNK         0.3096 
     66 H66        16.5814  -24.9047  -46.5505 H         1 UNK         0.1121 
     67 H67        17.0681  -27.2881  -47.0623 H         1 UNK         0.0849 
     68 H68        15.8186  -26.6580  -48.0846 H         1 UNK         0.0849 
     69 H69        15.3500  -30.6565  -46.5334 H         1 UNK         0.0865 
     70 H70        16.2410  -29.8754  -47.8112 H         1 UNK         0.0865 
     71 H71        16.0428  -29.8855  -44.0351 H         1 UNK         0.1346 
     72 H72        20.3075  -29.8868  -43.5834 H         1 UNK         0.1412 
     73 H73        18.5650  -29.6311  -47.4894 H         1 UNK         0.1426 
     74 H74        20.9000  -30.0615  -47.2774 H         1 UNK         0.0716 
     75 H75        21.6241  -30.4296  -45.7436 H         1 UNK         0.0716 
     76 H76        23.5254  -27.8953  -44.7096 H         1 UNK         0.0695 
     77 H77        22.2916  -28.9335  -44.0706 H         1 UNK         0.0695 
     78 H78        22.2710  -25.8840  -44.1626 H         1 UNK         0.0983 
     79 H79        19.9467  -27.5632  -43.9856 H         1 UNK         0.3095 
     80 H80        18.0462  -26.8669  -42.7152 H         1 UNK         0.0454 
     81 H81        17.7164  -23.8244  -42.4285 H         1 UNK         0.0851 
     82 H82        18.1768  -24.8928  -41.1108 H         1 UNK         0.0851 
     83 H83        16.6015  -25.0600  -41.8506 H         1 UNK         0.0851 
     84 H84        18.2816  -25.4031  -45.1305 H         1 UNK         0.2976 
     85 H85        20.8638  -27.7005  -41.5774 H         1 UNK         0.3116 
     86 H86        21.3232  -28.1309  -39.4624 H         1 UNK         0.0646 
     87 H87        23.2419  -25.7374  -39.5674 H         1 UNK         0.0847 
     88 H88        22.4868  -26.4194  -38.1256 H         1 UNK         0.0847 
     89 H89        21.5028  -25.6326  -39.3388 H         1 UNK         0.0847 
     90 H90        24.2337  -27.4125  -38.4322 H         1 UNK         0.3040 
     91 H91        25.1207  -30.0305  -38.1602 H         1 UNK         0.1015 
     92 H92        26.7018  -27.4160  -37.8966 H         1 UNK         0.0786 
     93 H93        27.1937  -28.9695  -37.2363 H         1 UNK         0.0786 
     94 H94        25.7455  -28.1868  -36.6296 H         1 UNK         0.0786 
     95 H95        25.7686  -27.8846  -40.8466 H         1 UNK         0.3172 
     96 H96        28.1236  -29.0988  -41.8891 H         1 UNK         0.0595 
     97 H97        27.4951  -27.9077  -43.9801 H         1 UNK         0.0839 
     98 H98        27.2988  -26.8501  -42.5927 H         1 UNK         0.0839 
     99 H99        25.8872  -27.5902  -43.3485 H         1 UNK         0.0839 
    100 H100       24.7740  -30.1498  -41.9618 H         1 UNK         0.2998 
    101 H101       25.5074  -32.4748  -43.7129 H         1 UNK         0.0822 
    102 H102       23.1736  -32.4659  -44.4909 H         1 UNK         0.0787 
    103 H103       22.7721  -31.1249  -43.4284 H         1 UNK         0.0787 
    104 H104       23.8665  -30.8818  -44.7945 H         1 UNK         0.0787 
    105 H105       25.3839  -31.7844  -40.6168 H         1 UNK         0.3055 
    106 H106       24.7804  -32.6417  -38.6633 H         1 UNK         0.1106 
    107 H107       24.7056  -35.0875  -38.4002 H         1 UNK         0.0828 
    108 H108       24.4395  -35.3151  -40.1211 H         1 UNK         0.0828 
    109 H109       25.9728  -34.6677  -39.5390 H         1 UNK         0.0828 
    110 H110       22.7360  -31.3521  -40.1626 H         1 UNK         0.2931 
    111 H111       20.2248  -32.7776  -39.5518 H         1 UNK         0.0412 
    112 H112       20.9045  -29.9515  -36.8370 H         1 UNK         0.3472 
    113 H113       22.1632  -30.8035  -37.6965 H         1 UNK         0.3472 
    114 H114       20.5244  -30.2066  -41.1596 H         1 UNK         0.0970 
    115 H115       20.8371  -31.7575  -41.8783 H         1 UNK         0.0970 
    116 H116       16.9467  -29.7973  -41.8571 H         1 UNK         0.0612 
    117 H117       18.5422  -29.1399  -41.6451 H         1 UNK         0.0612 
@<TRIPOS>BOND
     1    1    2 1    
     2    1   62 1    
     3    1   63 1    
     4    1   64 1    
     5    2    3 2    
     6    2    4 am   BACKBONE|DICT|INTERRES
     7    4    5 1    
     8    4   65 1    
     9    5    6 1    
    10    5   25 1    
    11    5   66 1    
    12    6    7 1    
    13    6   67 1    
    14    6   68 1    
    15    7    8 1    
    16    8    9 1    
    17    8   69 1    
    18    8   70 1    
    19    9   10 ar   
    20    9   14 ar   
    21   10   11 ar   
    22   10   71 1    
    23   11   12 ar   
    24   11   61 1    
    25   12   13 ar   
    26   12   72 1    
    27   13   14 ar   
    28   13   15 1    
    29   14   73 1    
    30   15   16 1    
    31   15   74 1    
    32   15   75 1    
    33   16   17 1    
    34   17   18 1    
    35   17   76 1    
    36   17   77 1    
    37   18   19 1    
    38   18   27 1    
    39   18   78 1    
    40   19   20 am   BACKBONE|DICT|INTERRES
    41   19   79 1    
    42   20   21 2    
    43   20   22 1    
    44   22   23 1    
    45   22   24 1    
    46   22   80 1    
    47   23   81 1    
    48   23   82 1    
    49   23   83 1    
    50   24   25 am   BACKBONE|DICT|INTERRES
    51   24   84 1    
    52   25   26 2    
    53   27   28 2    
    54   27   29 am   BACKBONE|DICT|INTERRES
    55   29   30 1    
    56   29   85 1    
    57   30   31 1    
    58   30   32 1    
    59   30   86 1    
    60   31   87 1    
    61   31   88 1    
    62   31   89 1    
    63   32   33 2    
    64   32   34 am   BACKBONE|DICT|INTERRES
    65   34   35 1    
    66   34   90 1    
    67   35   36 1    
    68   35   37 1    
    69   35   91 1    
    70   36   92 1    
    71   36   93 1    
    72   36   94 1    
    73   37   38 2    
    74   37   39 am   BACKBONE|DICT|INTERRES
    75   39   40 1    
    76   39   95 1    
    77   40   41 1    
    78   40   42 1    
    79   40   96 1    
    80   41   97 1    
    81   41   98 1    
    82   41   99 1    
    83   42   43 2    
    84   42   44 am   BACKBONE|DICT|INTERRES
    85   44   45 1    
    86   44  100 1    
    87   45   46 1    
    88   45   47 1    
    89   45  101 1    
    90   46  102 1    
    91   46  103 1    
    92   46  104 1    
    93   47   48 2    
    94   47   49 am   BACKBONE|DICT|INTERRES
    95   49   50 1    
    96   49  105 1    
    97   50   51 1    
    98   50   52 1    
    99   50  106 1    
   100   51  107 1    
   101   51  108 1    
   102   51  109 1    
   103   52   53 2    
   104   52   54 am   BACKBONE|DICT|INTERRES
   105   54   55 1    
   106   54  110 1    
   107   55   56 1    
   108   55   59 1    
   109   55  111 1    
   110   56   57 am   BACKBONE|DICT|INTERRES
   111   56   58 2    
   112   57  112 1    
   113   57  113 1    
   114   59   60 1    
   115   59  114 1    
   116   59  115 1    
   117   60   61 1    
   118   61  116 1    
   119   61  117 1    
@<TRIPOS>SUBSTRUCTURE
     1 UNK         1 GROUP             0       ****    0 ROOT    
