@<TRIPOS>MOLECULE
3R8
117   119    1
SMALL
USER_CHARGES


@<TRIPOS>ATOM
      1 CA         14.9376  -22.3141  -44.3238 C.3       0 UNK        -0.2013 
      2 C          14.7477  -23.3454  -45.4258 C.2       0 UNK         0.4866 
      3 O          14.8294  -23.0031  -46.6056 O.2       0 UNK        -0.5176 
      4 N          14.4892  -24.6045  -45.0497 N.am      1 UNK        -0.4884 
      5 CA         14.3200  -25.7457  -45.9592 C.3       1 UNK         0.0853 
      6 C6         13.6978  -26.9748  -45.2409 C.3       10 UNK        -0.0849 
      7 S7         14.5053  -27.3982  -43.6538 S.3       10 UNK        -0.2776 
      8 C8         15.5148  -28.8506  -44.1161 C.3       10 UNK         0.0316 
      9 C9         16.7169  -29.1394  -43.2098 C.ar      10 UNK        -0.0863 
     10 C10        17.5058  -30.2596  -43.4983 C.ar      10 UNK        -0.1009 
     11 C11        18.6266  -30.5670  -42.7207 C.ar      10 UNK        -0.0712 
     12 C12        18.9485  -29.7595  -41.6300 C.ar      10 UNK        -0.0894 
     13 C13        18.2032  -28.6137  -41.3517 C.ar      10 UNK        -0.0745 
     14 C14        17.0823  -28.3164  -42.1327 C.ar      10 UNK        -0.0972 
     15 C15        18.6533  -27.6654  -40.2482 C.3       10 UNK         0.0209 
     16 S16        20.2680  -26.8961  -40.6253 S.3       10 UNK        -0.2568 
     17 C17        19.9549  -26.1362  -42.2569 C.3       10 UNK        -0.0983 
     18 CA         20.4171  -27.0513  -43.4302 C.3       3 UNK         0.0876 
     19 N          19.5011  -27.0553  -44.5729 N.am      3 UNK        -0.4424 
     20 C          19.0475  -26.0066  -45.2696 C.2       2 UNK         0.4918 
     21 O          19.2927  -24.8299  -45.0013 O.2       2 UNK        -0.4875 
     22 CA         18.1113  -26.3229  -46.4443 C.3       2 UNK         0.0481 
     23 CB         18.2766  -27.7619  -46.9952 C.3       2 UNK        -0.1831 
     24 N          16.7506  -26.0635  -45.9808 N.am      2 UNK        -0.4498 
     25 C          15.6233  -26.1121  -46.7016 C.2       1 UNK         0.5027 
     26 O          15.5758  -26.4130  -47.8951 O.2       1 UNK        -0.4969 
     27 C          21.8857  -26.8293  -43.8448 C.2       3 UNK         0.5005 
     28 O          22.1748  -26.3980  -44.9645 O.2       3 UNK        -0.5279 
     29 N          22.7950  -27.1713  -42.9286 N.am      4 UNK        -0.4463 
     30 CA         24.2436  -27.1416  -43.0893 C.3       4 UNK         0.0283 
     31 CB         24.7019  -28.3277  -43.9622 C.3       4 UNK        -0.1875 
     32 C          24.8767  -27.2216  -41.6973 C.2       4 UNK         0.4949 
     33 O          24.2095  -27.6365  -40.7458 O.2       4 UNK        -0.5039 
     34 N          26.1701  -26.8825  -41.6102 N.am      5 UNK        -0.4663 
     35 CA         26.9755  -26.9154  -40.3794 C.3       5 UNK         0.0242 
     36 CB         28.3655  -26.3273  -40.6727 C.3       5 UNK        -0.1982 
     37 C          27.1067  -28.3104  -39.7354 C.2       5 UNK         0.5017 
     38 O          27.3811  -28.3991  -38.5385 O.2       5 UNK        -0.5012 
     39 N          26.8818  -29.3664  -40.5300 N.am      6 UNK        -0.4439 
     40 CA         26.7915  -30.7597  -40.0893 C.3       6 UNK         0.0297 
     41 CB         26.8292  -31.6756  -41.3251 C.3       6 UNK        -0.2006 
     42 C          25.5410  -31.0681  -39.2416 C.2       6 UNK         0.4892 
     43 O          25.5223  -32.1090  -38.5841 O.2       6 UNK        -0.5089 
     44 N          24.5138  -30.2023  -39.2972 N.am      7 UNK        -0.4243 
     45 CA         23.2118  -30.2535  -38.6103 C.3       7 UNK         0.0196 
     46 CB         23.3799  -30.2392  -37.0789 C.3       7 UNK        -0.2007 
     47 C          22.2870  -31.4013  -39.0562 C.2       7 UNK         0.5020 
     48 O          21.0927  -31.1751  -39.2389 O.2       7 UNK        -0.5147 
     49 N          22.8445  -32.6012  -39.2435 N.am      8 UNK        -0.4734 
     50 CA         22.1585  -33.7865  -39.7648 C.3       8 UNK         0.0238 
     51 CB         22.8023  -35.0364  -39.1404 C.3       8 UNK        -0.1912 
     52 C          22.1939  -33.8717  -41.3029 C.2       8 UNK         0.5038 
     53 O          21.5753  -34.7785  -41.8607 O.2       8 UNK        -0.5046 
     54 N          22.9272  -32.9555  -41.9533 N.am      9 UNK        -0.4200 
     55 CA         23.1902  -32.9046  -43.4042 C.3       9 UNK         0.0839 
     56 C          24.0836  -34.0678  -43.9369 C.2       9 UNK         0.5513 
     57 N          24.8017  -34.7934  -43.0876 N.am      9 UNK        -0.7519 
     58 O          24.1583  -34.2979  -45.1413 O.2       9 UNK        -0.4960 
     59 C59        21.9078  -32.6912  -44.2620 C.3       10 UNK        -0.0876 
     60 S60        21.0508  -31.1280  -43.8777 S.3       10 UNK        -0.2414 
     61 C61        19.5307  -31.7337  -43.0800 C.3       10 UNK         0.0169 
     62 H62        14.2073  -21.5124  -44.4300 H         1 UNK         0.0903 
     63 H63        14.8203  -22.7502  -43.3318 H         1 UNK         0.0903 
     64 H64        15.9344  -21.8782  -44.3867 H         1 UNK         0.0903 
     65 H65        14.4233  -24.8310  -44.0663 H         1 UNK         0.3096 
     66 H66        13.6139  -25.4335  -46.7325 H         1 UNK         0.1121 
     67 H67        12.6521  -26.7581  -45.0173 H         1 UNK         0.0849 
     68 H68        13.6728  -27.8470  -45.8977 H         1 UNK         0.0849 
     69 H69        14.8642  -29.7263  -44.1334 H         1 UNK         0.0865 
     70 H70        15.8786  -28.7207  -45.1349 H         1 UNK         0.0865 
     71 H71        17.2568  -30.8864  -44.3441 H         1 UNK         0.1346 
     72 H72        19.8275  -29.9804  -41.0418 H         1 UNK         0.1412 
     73 H73        16.5183  -27.4245  -41.9034 H         1 UNK         0.1426 
     74 H74        17.9147  -26.8795  -40.0831 H         1 UNK         0.0716 
     75 H75        18.7333  -28.2170  -39.3104 H         1 UNK         0.0716 
     76 H76        18.8863  -25.9278  -42.3260 H         1 UNK         0.0695 
     77 H77        20.4409  -25.1596  -42.2979 H         1 UNK         0.0695 
     78 H78        20.3877  -28.0864  -43.0945 H         1 UNK         0.0983 
     79 H79        19.2282  -27.9751  -44.8860 H         1 UNK         0.3095 
     80 H80        18.3416  -25.6166  -47.2441 H         1 UNK         0.0454 
     81 H81        17.9333  -28.5208  -46.2927 H         1 UNK         0.0851 
     82 H82        17.7217  -27.9009  -47.9224 H         1 UNK         0.0851 
     83 H83        19.3212  -27.9732  -47.2291 H         1 UNK         0.0851 
     84 H84        16.6753  -25.7727  -45.0150 H         1 UNK         0.2976 
     85 H85        22.4934  -27.4577  -42.0025 H         1 UNK         0.3116 
     86 H86        24.5349  -26.1973  -43.5540 H         1 UNK         0.0646 
     87 H87        25.7857  -28.3379  -44.0826 H         1 UNK         0.0847 
     88 H88        24.2729  -28.2760  -44.9629 H         1 UNK         0.0847 
     89 H89        24.4101  -29.2844  -43.5265 H         1 UNK         0.0847 
     90 H90        26.6414  -26.5606  -42.4444 H         1 UNK         0.3040 
     91 H91        26.4796  -26.2755  -39.6460 H         1 UNK         0.1015 
     92 H92        28.2952  -25.3008  -41.0332 H         1 UNK         0.0786 
     93 H93        28.9017  -26.9120  -41.4214 H         1 UNK         0.0786 
     94 H94        28.9807  -26.3092  -39.7718 H         1 UNK         0.0786 
     95 H95        26.6895  -29.1822  -41.5034 H         1 UNK         0.3172 
     96 H96        27.6657  -30.9776  -39.4722 H         1 UNK         0.0595 
     97 H97        26.7908  -32.7269  -41.0354 H         1 UNK         0.0839 
     98 H98        27.7479  -31.5357  -41.8951 H         1 UNK         0.0839 
     99 H99        25.9878  -31.4918  -41.9942 H         1 UNK         0.0839 
    100 H100       24.6286  -29.3795  -39.8822 H         1 UNK         0.2998 
    101 H101       22.7054  -29.3274  -38.8893 H         1 UNK         0.0822 
    102 H102       23.9740  -29.3847  -36.7548 H         1 UNK         0.0787 
    103 H103       22.4109  -30.1678  -36.5831 H         1 UNK         0.0787 
    104 H104       23.8649  -31.1440  -36.7111 H         1 UNK         0.0787 
    105 H105       23.8351  -32.6889  -39.0228 H         1 UNK         0.3055 
    106 H106       21.1072  -33.7570  -39.4690 H         1 UNK         0.1106 
    107 H107       22.3029  -35.9462  -39.4768 H         1 UNK         0.0828 
    108 H108       23.8563  -35.1247  -39.4064 H         1 UNK         0.0828 
    109 H109       22.7323  -35.0156  -38.0526 H         1 UNK         0.0828 
    110 H110       23.3845  -32.2486  -41.3989 H         1 UNK         0.2931 
    111 H111       23.8090  -32.0170  -43.5422 H         1 UNK         0.0412 
    112 H112       25.3843  -35.5345  -43.4447 H         1 UNK         0.3472 
    113 H113       24.7594  -34.6177  -42.0975 H         1 UNK         0.3472 
    114 H114       21.2241  -33.5348  -44.1593 H         1 UNK         0.0970 
    115 H115       22.1627  -32.6483  -45.3224 H         1 UNK         0.0970 
    116 H116       19.7863  -32.2925  -42.1789 H         1 UNK         0.0612 
    117 H117       19.0177  -32.4270  -43.7482 H         1 UNK         0.0612 
@<TRIPOS>BOND
     1    1    2 1    
     2    1   62 1    
     3    1   63 1    
     4    1   64 1    
     5    2    3 2    
     6    2    4 am   BACKBONE|DICT|INTERRES
     7    4    5 1    
     8    4   65 1    
     9    5    6 1    
    10    5   25 1    
    11    5   66 1    
    12    6    7 1    
    13    6   67 1    
    14    6   68 1    
    15    7    8 1    
    16    8    9 1    
    17    8   69 1    
    18    8   70 1    
    19    9   10 ar   
    20    9   14 ar   
    21   10   11 ar   
    22   10   71 1    
    23   11   12 ar   
    24   11   61 1    
    25   12   13 ar   
    26   12   72 1    
    27   13   14 ar   
    28   13   15 1    
    29   14   73 1    
    30   15   16 1    
    31   15   74 1    
    32   15   75 1    
    33   16   17 1    
    34   17   18 1    
    35   17   76 1    
    36   17   77 1    
    37   18   19 1    
    38   18   27 1    
    39   18   78 1    
    40   19   20 am   BACKBONE|DICT|INTERRES
    41   19   79 1    
    42   20   21 2    
    43   20   22 1    
    44   22   23 1    
    45   22   24 1    
    46   22   80 1    
    47   23   81 1    
    48   23   82 1    
    49   23   83 1    
    50   24   25 am   BACKBONE|DICT|INTERRES
    51   24   84 1    
    52   25   26 2    
    53   27   28 2    
    54   27   29 am   BACKBONE|DICT|INTERRES
    55   29   30 1    
    56   29   85 1    
    57   30   31 1    
    58   30   32 1    
    59   30   86 1    
    60   31   87 1    
    61   31   88 1    
    62   31   89 1    
    63   32   33 2    
    64   32   34 am   BACKBONE|DICT|INTERRES
    65   34   35 1    
    66   34   90 1    
    67   35   36 1    
    68   35   37 1    
    69   35   91 1    
    70   36   92 1    
    71   36   93 1    
    72   36   94 1    
    73   37   38 2    
    74   37   39 am   BACKBONE|DICT|INTERRES
    75   39   40 1    
    76   39   95 1    
    77   40   41 1    
    78   40   42 1    
    79   40   96 1    
    80   41   97 1    
    81   41   98 1    
    82   41   99 1    
    83   42   43 2    
    84   42   44 am   BACKBONE|DICT|INTERRES
    85   44   45 1    
    86   44  100 1    
    87   45   46 1    
    88   45   47 1    
    89   45  101 1    
    90   46  102 1    
    91   46  103 1    
    92   46  104 1    
    93   47   48 2    
    94   47   49 am   BACKBONE|DICT|INTERRES
    95   49   50 1    
    96   49  105 1    
    97   50   51 1    
    98   50   52 1    
    99   50  106 1    
   100   51  107 1    
   101   51  108 1    
   102   51  109 1    
   103   52   53 2    
   104   52   54 am   BACKBONE|DICT|INTERRES
   105   54   55 1    
   106   54  110 1    
   107   55   56 1    
   108   55   59 1    
   109   55  111 1    
   110   56   57 am   BACKBONE|DICT|INTERRES
   111   56   58 2    
   112   57  112 1    
   113   57  113 1    
   114   59   60 1    
   115   59  114 1    
   116   59  115 1    
   117   60   61 1    
   118   61  116 1    
   119   61  117 1    
@<TRIPOS>SUBSTRUCTURE
     1 UNK         1 GROUP             0       ****    0 ROOT    
