@<TRIPOS>MOLECULE
3R8
117   119    1
SMALL
USER_CHARGES


@<TRIPOS>ATOM
      1 CA         16.5966  -24.6044  -41.0597 C.3       0 UNK        -0.2013 
      2 C          16.6817  -24.6503  -42.5781 C.2       0 UNK         0.4866 
      3 O          17.0678  -23.6601  -43.1997 O.2       0 UNK        -0.5176 
      4 N          16.3216  -25.7917  -43.1798 N.am      1 UNK        -0.4884 
      5 CA         16.4609  -26.0618  -44.6161 C.3       1 UNK         0.0853 
      6 C6         15.5808  -27.2819  -45.0453 C.3       10 UNK        -0.0849 
      7 S7         16.1285  -28.2854  -46.4849 S.3       10 UNK        -0.2776 
      8 C8         16.4280  -29.9353  -45.7592 C.3       10 UNK         0.0316 
      9 C9         17.6797  -29.9932  -44.8893 C.ar      10 UNK        -0.0863 
     10 C10        17.5908  -29.7224  -43.5208 C.ar      10 UNK        -0.1009 
     11 C11        18.7238  -29.7748  -42.7062 C.ar      10 UNK        -0.0712 
     12 C12        19.9481  -30.1529  -43.2610 C.ar      10 UNK        -0.0894 
     13 C13        20.0534  -30.4518  -44.6233 C.ar      10 UNK        -0.0745 
     14 C14        18.9172  -30.3567  -45.4363 C.ar      10 UNK        -0.0972 
     15 C15        21.3778  -30.9507  -45.1908 C.3       10 UNK         0.0209 
     16 S16        22.4006  -29.6459  -45.9523 S.3       10 UNK        -0.2568 
     17 C17        22.8486  -28.6066  -44.5122 C.3       10 UNK        -0.0983 
     18 CA         22.4823  -27.1008  -44.6432 C.3       3 UNK         0.0876 
     19 N          21.2970  -26.8899  -45.4719 N.am      3 UNK        -0.4424 
     20 C          20.8652  -25.7305  -45.9796 C.2       2 UNK         0.4918 
     21 O          21.4137  -24.6437  -45.7959 O.2       2 UNK        -0.4875 
     22 CA         19.6056  -25.8131  -46.8629 C.3       2 UNK         0.0481 
     23 CB         19.5558  -27.1075  -47.7036 C.3       2 UNK        -0.1831 
     24 N          18.3361  -25.6515  -46.1430 N.am      2 UNK        -0.4498 
     25 C          17.9566  -26.1971  -44.9750 C.2       1 UNK         0.5027 
     26 O          18.6998  -26.8124  -44.2088 O.2       1 UNK        -0.4969 
     27 C          22.3410  -26.4584  -43.2451 C.2       3 UNK         0.5005 
     28 O          23.3517  -26.0767  -42.6529 O.2       3 UNK        -0.5279 
     29 N          21.0969  -26.3671  -42.7454 N.am      4 UNK        -0.4463 
     30 CA         20.6222  -25.7657  -41.4915 C.3       4 UNK         0.0283 
     31 CB         20.8821  -24.2484  -41.4711 C.3       4 UNK        -0.1875 
     32 C          21.1219  -26.4301  -40.1953 C.2       4 UNK         0.4949 
     33 O          20.3112  -26.6869  -39.3059 O.2       4 UNK        -0.5039 
     34 N          22.4267  -26.6941  -40.0998 N.am      5 UNK        -0.4663 
     35 CA         23.0979  -27.2751  -38.9366 C.3       5 UNK         0.0242 
     36 CB         23.3503  -26.1872  -37.8721 C.3       5 UNK        -0.1982 
     37 C          24.3798  -27.9977  -39.3777 C.2       5 UNK         0.5017 
     38 O          25.4255  -27.8489  -38.7428 O.2       5 UNK        -0.5012 
     39 N          24.2820  -28.7505  -40.4775 N.am      6 UNK        -0.4439 
     40 CA         25.3559  -29.5364  -41.0727 C.3       6 UNK         0.0297 
     41 CB         26.2003  -28.6431  -42.0006 C.3       6 UNK        -0.2006 
     42 C          24.7371  -30.7157  -41.8302 C.2       6 UNK         0.4892 
     43 O          23.5218  -30.7250  -42.0551 O.2       6 UNK        -0.5089 
     44 N          25.5871  -31.6867  -42.1966 N.am      7 UNK        -0.4243 
     45 CA         25.2639  -32.9212  -42.9221 C.3       7 UNK         0.0196 
     46 CB         24.9843  -32.6107  -44.4098 C.3       7 UNK        -0.2007 
     47 C          24.1501  -33.7164  -42.2153 C.2       7 UNK         0.5020 
     48 O          24.3919  -34.2420  -41.1280 O.2       7 UNK        -0.5147 
     49 N          22.9464  -33.7470  -42.8037 N.am      8 UNK        -0.4734 
     50 CA         21.7389  -34.3649  -42.2413 C.3       8 UNK         0.0238 
     51 CB         20.6015  -34.2796  -43.2728 C.3       8 UNK        -0.1912 
     52 C          21.2824  -33.7650  -40.8959 C.2       8 UNK         0.5038 
     53 O          20.6183  -34.4653  -40.1304 O.2       8 UNK        -0.5046 
     54 N          21.6569  -32.5074  -40.6311 N.am      9 UNK        -0.4200 
     55 CA         21.4345  -31.7961  -39.3642 C.3       9 UNK         0.0839 
     56 C          22.7540  -31.5746  -38.5678 C.2       9 UNK         0.5513 
     57 N          23.8448  -32.2698  -38.8705 N.am      9 UNK        -0.7519 
     58 O          22.7912  -30.7673  -37.6434 O.2       9 UNK        -0.4960 
     59 C59        20.6426  -30.4799  -39.5861 C.3       10 UNK        -0.0876 
     60 S60        18.9276  -30.7986  -40.1275 S.3       10 UNK        -0.2414 
     61 C61        18.6204  -29.3916  -41.2377 C.3       10 UNK         0.0169 
     62 H62        15.8815  -23.8441  -40.7465 H         1 UNK         0.0903 
     63 H63        16.2837  -25.5599  -40.6388 H         1 UNK         0.0903 
     64 H64        17.5690  -24.3522  -40.6374 H         1 UNK         0.0903 
     65 H65        16.0426  -26.5785  -42.6124 H         1 UNK         0.3096 
     66 H66        16.0820  -25.1859  -45.1480 H         1 UNK         0.1121 
     67 H67        14.5743  -26.9235  -45.2661 H         1 UNK         0.0849 
     68 H68        15.4430  -27.9585  -44.2037 H         1 UNK         0.0849 
     69 H69        15.5534  -30.2451  -45.1851 H         1 UNK         0.0865 
     70 H70        16.5182  -30.6576  -46.5719 H         1 UNK         0.0865 
     71 H71        16.6392  -29.4557  -43.0856 H         1 UNK         0.1346 
     72 H72        20.8153  -30.2331  -42.6223 H         1 UNK         0.1412 
     73 H73        18.9912  -30.5908  -46.4895 H         1 UNK         0.1426 
     74 H74        21.9520  -31.4348  -44.4016 H         1 UNK         0.0716 
     75 H75        21.1846  -31.7218  -45.9380 H         1 UNK         0.0716 
     76 H76        22.3895  -29.0370  -43.6259 H         1 UNK         0.0695 
     77 H77        23.9221  -28.7096  -44.3522 H         1 UNK         0.0695 
     78 H78        23.3095  -26.5954  -45.1461 H         1 UNK         0.0983 
     79 H79        20.7539  -27.7219  -45.6559 H         1 UNK         0.3095 
     80 H80        19.6688  -24.9770  -47.5610 H         1 UNK         0.0454 
     81 H81        19.3423  -27.9861  -47.0945 H         1 UNK         0.0851 
     82 H82        18.7798  -27.0477  -48.4667 H         1 UNK         0.0851 
     83 H83        20.5005  -27.2831  -48.2204 H         1 UNK         0.0851 
     84 H84        17.6362  -25.1314  -46.6530 H         1 UNK         0.2976 
     85 H85        20.3422  -26.7115  -43.3395 H         1 UNK         0.3116 
     86 H86        19.5402  -25.9058  -41.5081 H         1 UNK         0.0646 
     87 H87        21.9475  -24.0166  -41.4819 H         1 UNK         0.0847 
     88 H88        20.4231  -23.7593  -42.3306 H         1 UNK         0.0847 
     89 H89        20.4594  -23.7923  -40.5750 H         1 UNK         0.0847 
     90 H90        23.0135  -26.4586  -40.9008 H         1 UNK         0.3040 
     91 H91        22.4521  -28.0388  -38.4976 H         1 UNK         0.1015 
     92 H92        23.9986  -25.3975  -38.2534 H         1 UNK         0.0786 
     93 H93        23.8288  -26.6079  -36.9868 H         1 UNK         0.0786 
     94 H94        22.4186  -25.7267  -37.5433 H         1 UNK         0.0786 
     95 H95        23.3847  -28.8746  -40.9279 H         1 UNK         0.3172 
     96 H96        25.9871  -29.9446  -40.2805 H         1 UNK         0.0595 
     97 H97        26.9841  -29.2127  -42.5010 H         1 UNK         0.0839 
     98 H98        26.6908  -27.8469  -41.4404 H         1 UNK         0.0839 
     99 H99        25.5908  -28.1738  -42.7727 H         1 UNK         0.0839 
    100 H100       26.5552  -31.5923  -41.9222 H         1 UNK         0.2998 
    101 H101       26.1530  -33.5526  -42.8811 H         1 UNK         0.0822 
    102 H102       24.1934  -31.8738  -44.5386 H         1 UNK         0.0787 
    103 H103       25.8754  -32.2090  -44.8923 H         1 UNK         0.0787 
    104 H104       24.7046  -33.5095  -44.9612 H         1 UNK         0.0787 
    105 H105       22.8436  -33.2691  -43.6860 H         1 UNK         0.3055 
    106 H106       21.9641  -35.4185  -42.0616 H         1 UNK         0.1106 
    107 H107       20.8804  -34.7467  -44.2174 H         1 UNK         0.0828 
    108 H108       19.7100  -34.7935  -42.9107 H         1 UNK         0.0828 
    109 H109       20.3162  -33.2469  -43.4758 H         1 UNK         0.0828 
    110 H110       22.2443  -32.0214  -41.3021 H         1 UNK         0.2931 
    111 H111       20.8319  -32.4196  -38.7017 H         1 UNK         0.0412 
    112 H112       24.6808  -32.1229  -38.3281 H         1 UNK         0.3472 
    113 H113       23.8413  -32.9624  -39.6102 H         1 UNK         0.3472 
    114 H114       20.5770  -29.8987  -38.6644 H         1 UNK         0.0970 
    115 H115       21.1603  -29.8459  -40.3066 H         1 UNK         0.0970 
    116 H116       19.3147  -28.5798  -41.0280 H         1 UNK         0.0612 
    117 H117       17.6278  -28.9970  -41.0164 H         1 UNK         0.0612 
@<TRIPOS>BOND
     1    1    2 1    
     2    1   62 1    
     3    1   63 1    
     4    1   64 1    
     5    2    3 2    
     6    2    4 am   BACKBONE|DICT|INTERRES
     7    4    5 1    
     8    4   65 1    
     9    5    6 1    
    10    5   25 1    
    11    5   66 1    
    12    6    7 1    
    13    6   67 1    
    14    6   68 1    
    15    7    8 1    
    16    8    9 1    
    17    8   69 1    
    18    8   70 1    
    19    9   10 ar   
    20    9   14 ar   
    21   10   11 ar   
    22   10   71 1    
    23   11   12 ar   
    24   11   61 1    
    25   12   13 ar   
    26   12   72 1    
    27   13   14 ar   
    28   13   15 1    
    29   14   73 1    
    30   15   16 1    
    31   15   74 1    
    32   15   75 1    
    33   16   17 1    
    34   17   18 1    
    35   17   76 1    
    36   17   77 1    
    37   18   19 1    
    38   18   27 1    
    39   18   78 1    
    40   19   20 am   BACKBONE|DICT|INTERRES
    41   19   79 1    
    42   20   21 2    
    43   20   22 1    
    44   22   23 1    
    45   22   24 1    
    46   22   80 1    
    47   23   81 1    
    48   23   82 1    
    49   23   83 1    
    50   24   25 am   BACKBONE|DICT|INTERRES
    51   24   84 1    
    52   25   26 2    
    53   27   28 2    
    54   27   29 am   BACKBONE|DICT|INTERRES
    55   29   30 1    
    56   29   85 1    
    57   30   31 1    
    58   30   32 1    
    59   30   86 1    
    60   31   87 1    
    61   31   88 1    
    62   31   89 1    
    63   32   33 2    
    64   32   34 am   BACKBONE|DICT|INTERRES
    65   34   35 1    
    66   34   90 1    
    67   35   36 1    
    68   35   37 1    
    69   35   91 1    
    70   36   92 1    
    71   36   93 1    
    72   36   94 1    
    73   37   38 2    
    74   37   39 am   BACKBONE|DICT|INTERRES
    75   39   40 1    
    76   39   95 1    
    77   40   41 1    
    78   40   42 1    
    79   40   96 1    
    80   41   97 1    
    81   41   98 1    
    82   41   99 1    
    83   42   43 2    
    84   42   44 am   BACKBONE|DICT|INTERRES
    85   44   45 1    
    86   44  100 1    
    87   45   46 1    
    88   45   47 1    
    89   45  101 1    
    90   46  102 1    
    91   46  103 1    
    92   46  104 1    
    93   47   48 2    
    94   47   49 am   BACKBONE|DICT|INTERRES
    95   49   50 1    
    96   49  105 1    
    97   50   51 1    
    98   50   52 1    
    99   50  106 1    
   100   51  107 1    
   101   51  108 1    
   102   51  109 1    
   103   52   53 2    
   104   52   54 am   BACKBONE|DICT|INTERRES
   105   54   55 1    
   106   54  110 1    
   107   55   56 1    
   108   55   59 1    
   109   55  111 1    
   110   56   57 am   BACKBONE|DICT|INTERRES
   111   56   58 2    
   112   57  112 1    
   113   57  113 1    
   114   59   60 1    
   115   59  114 1    
   116   59  115 1    
   117   60   61 1    
   118   61  116 1    
   119   61  117 1    
@<TRIPOS>SUBSTRUCTURE
     1 UNK         1 GROUP             0       ****    0 ROOT    
