@<TRIPOS>MOLECULE
3R8
117   119    1
SMALL
USER_CHARGES


@<TRIPOS>ATOM
      1 CA         15.4595  -24.2365  -40.7799 C.3       0 UNK        -0.2013 
      2 C          15.8398  -24.0933  -42.2459 C.2       0 UNK         0.4866 
      3 O          15.6447  -23.0263  -42.8282 O.2       0 UNK        -0.5176 
      4 N          16.3831  -25.1595  -42.8478 N.am      1 UNK        -0.4884 
      5 CA         16.7889  -25.2019  -44.2589 C.3       1 UNK         0.0853 
      6 C6         17.0049  -26.6480  -44.7505 C.3       10 UNK        -0.0849 
      7 S7         15.5140  -27.7038  -44.7872 S.3       10 UNK        -0.2776 
      8 C8         16.0499  -29.2552  -43.9578 C.3       10 UNK         0.0316 
      9 C9         17.2501  -30.0080  -44.5541 C.ar      10 UNK        -0.0863 
     10 C10        17.6214  -31.2329  -43.9912 C.ar      10 UNK        -0.1009 
     11 C11        18.7479  -31.9240  -44.4513 C.ar      10 UNK        -0.0712 
     12 C12        19.5633  -31.3395  -45.4297 C.ar      10 UNK        -0.0894 
     13 C13        19.2174  -30.1081  -45.9988 C.ar      10 UNK        -0.0745 
     14 C14        18.0153  -29.5104  -45.6129 C.ar      10 UNK        -0.0972 
     15 C15        20.1346  -29.4292  -47.0239 C.3       10 UNK         0.0209 
     16 S16        20.0230  -27.5897  -47.0104 S.3       10 UNK        -0.2568 
     17 C17        21.7400  -27.0044  -46.7707 C.3       10 UNK        -0.0983 
     18 CA         22.0498  -26.3296  -45.4017 C.3       3 UNK         0.0876 
     19 N          21.0941  -25.2859  -45.0011 N.am      3 UNK        -0.4424 
     20 C          21.3534  -24.3525  -44.0697 C.2       2 UNK         0.4918 
     21 O          22.4689  -24.1875  -43.5754 O.2       2 UNK        -0.4875 
     22 CA         20.2021  -23.4637  -43.5555 C.3       2 UNK         0.0481 
     23 CB         20.1787  -22.0998  -44.2742 C.3       2 UNK        -0.1831 
     24 N          18.8816  -24.1099  -43.5317 N.am      2 UNK        -0.4498 
     25 C          18.0758  -24.4005  -44.5622 C.2       1 UNK         0.5027 
     26 O          18.3466  -24.1289  -45.7320 O.2       1 UNK        -0.4969 
     27 C          22.2258  -27.3481  -44.2621 C.2       3 UNK         0.5005 
     28 O          23.2993  -27.4184  -43.6591 O.2       3 UNK        -0.5279 
     29 N          21.1542  -28.1089  -43.9905 N.am      4 UNK        -0.4463 
     30 CA         20.9898  -29.0880  -42.9078 C.3       4 UNK         0.0283 
     31 CB         20.7535  -28.3481  -41.5752 C.3       4 UNK        -0.1875 
     32 C          22.1205  -30.1335  -42.8081 C.2       4 UNK         0.4949 
     33 O          22.3945  -30.6169  -41.7110 O.2       4 UNK        -0.5039 
     34 N          22.7873  -30.4228  -43.9375 N.am      5 UNK        -0.4663 
     35 CA         24.0049  -31.2362  -44.0666 C.3       5 UNK         0.0242 
     36 CB         23.6720  -32.7324  -43.9046 C.3       5 UNK        -0.1982 
     37 C          25.1436  -30.7665  -43.1343 C.2       5 UNK         0.5017 
     38 O          25.8006  -31.5947  -42.5029 O.2       5 UNK        -0.5012 
     39 N          25.3247  -29.4387  -43.0401 N.am      6 UNK        -0.4439 
     40 CA         26.2323  -28.7331  -42.1255 C.3       6 UNK         0.0297 
     41 CB         27.7107  -29.0777  -42.4087 C.3       6 UNK        -0.2006 
     42 C          25.8258  -28.9313  -40.6519 C.2       6 UNK         0.4892 
     43 O          26.6713  -29.2237  -39.8053 O.2       6 UNK        -0.5089 
     44 N          24.5183  -28.7764  -40.3967 N.am      7 UNK        -0.4243 
     45 CA         23.8095  -28.9177  -39.1173 C.3       7 UNK         0.0196 
     46 CB         24.3655  -27.9487  -38.0525 C.3       7 UNK        -0.2007 
     47 C          23.6958  -30.3618  -38.5886 C.2       7 UNK         0.5020 
     48 O          23.1717  -30.5509  -37.4899 O.2       7 UNK        -0.5147 
     49 N          24.1256  -31.3640  -39.3685 N.am      8 UNK        -0.4734 
     50 CA         23.9927  -32.7865  -39.0363 C.3       8 UNK         0.0238 
     51 CB         24.8628  -33.6231  -39.9861 C.3       8 UNK        -0.1912 
     52 C          22.5350  -33.2836  -39.0501 C.2       8 UNK         0.5038 
     53 O          22.2173  -34.2150  -38.3091 O.2       8 UNK        -0.5046 
     54 N          21.6769  -32.6490  -39.8603 N.am      9 UNK        -0.4200 
     55 CA         20.2234  -32.8837  -39.8955 C.3       9 UNK         0.0839 
     56 C          19.4498  -32.2314  -38.7109 C.2       9 UNK         0.5513 
     57 N          20.0804  -31.4546  -37.8363 N.am      9 UNK        -0.7519 
     58 O          18.2471  -32.4419  -38.5781 O.2       9 UNK        -0.4960 
     59 C59        19.5962  -32.4797  -41.2579 C.3       10 UNK        -0.0876 
     60 S60        20.3767  -33.3301  -42.6705 S.3       10 UNK        -0.2414 
     61 C61        19.0551  -33.3176  -43.9168 C.3       10 UNK         0.0169 
     62 H62        14.3920  -24.0602  -40.6510 H         1 UNK         0.0903 
     63 H63        15.6876  -25.2298  -40.3935 H         1 UNK         0.0903 
     64 H64        16.0004  -23.5062  -40.1787 H         1 UNK         0.0903 
     65 H65        16.4947  -26.0206  -42.3312 H         1 UNK         0.3096 
     66 H66        15.9920  -24.7519  -44.8559 H         1 UNK         0.1121 
     67 H67        17.3659  -26.6073  -45.7798 H         1 UNK         0.0849 
     68 H68        17.7854  -27.1335  -44.1611 H         1 UNK         0.0849 
     69 H69        16.2753  -29.0212  -42.9164 H         1 UNK         0.0865 
     70 H70        15.1940  -29.9314  -43.9373 H         1 UNK         0.0865 
     71 H71        17.0193  -31.6605  -43.2008 H         1 UNK         0.1346 
     72 H72        20.4601  -31.8515  -45.7514 H         1 UNK         0.1412 
     73 H73        17.7007  -28.6303  -46.1391 H         1 UNK         0.1426 
     74 H74        19.8683  -29.7861  -48.0195 H         1 UNK         0.0716 
     75 H75        21.1664  -29.7372  -46.8525 H         1 UNK         0.0716 
     76 H76        21.9265  -26.2753  -47.5607 H         1 UNK         0.0695 
     77 H77        22.4424  -27.8157  -46.9692 H         1 UNK         0.0695 
     78 H78        23.0217  -25.8441  -45.5193 H         1 UNK         0.0983 
     79 H79        20.1703  -25.3208  -45.4123 H         1 UNK         0.3095 
     80 H80        20.4259  -23.2614  -42.5068 H         1 UNK         0.0454 
     81 H81        19.3854  -21.4600  -43.8880 H         1 UNK         0.0851 
     82 H82        20.0358  -22.2021  -45.3500 H         1 UNK         0.0851 
     83 H83        21.1212  -21.5709  -44.1276 H         1 UNK         0.0851 
     84 H84        18.5672  -24.4064  -42.6180 H         1 UNK         0.2976 
     85 H85        20.3546  -28.0019  -44.6014 H         1 UNK         0.3116 
     86 H86        20.0835  -29.6491  -43.1334 H         1 UNK         0.0646 
     87 H87        19.8912  -27.6851  -41.6415 H         1 UNK         0.0847 
     88 H88        20.5575  -29.0448  -40.7590 H         1 UNK         0.0847 
     89 H89        21.6156  -27.7434  -41.2938 H         1 UNK         0.0847 
     90 H90        22.4824  -29.9570  -44.7790 H         1 UNK         0.3040 
     91 H91        24.3730  -31.0906  -45.0833 H         1 UNK         0.1015 
     92 H92        24.5502  -33.3547  -44.0804 H         1 UNK         0.0786 
     93 H93        22.9053  -33.0461  -44.6127 H         1 UNK         0.0786 
     94 H94        23.3091  -32.9541  -42.9017 H         1 UNK         0.0786 
     95 H95        24.6736  -28.8362  -43.5382 H         1 UNK         0.3172 
     96 H96        26.1015  -27.6701  -42.3346 H         1 UNK         0.0595 
     97 H97        27.9457  -30.1125  -42.1584 H         1 UNK         0.0839 
     98 H98        28.3754  -28.4460  -41.8182 H         1 UNK         0.0839 
     99 H99        27.9617  -28.9201  -43.4575 H         1 UNK         0.0839 
    100 H100       23.9218  -28.5892  -41.1916 H         1 UNK         0.2998 
    101 H101       22.7833  -28.6116  -39.3217 H         1 UNK         0.0822 
    102 H102       23.7302  -27.9360  -37.1660 H         1 UNK         0.0787 
    103 H103       24.4115  -26.9272  -38.4299 H         1 UNK         0.0787 
    104 H104       25.3660  -28.2331  -37.7261 H         1 UNK         0.0787 
    105 H105       24.4947  -31.1375  -40.2828 H         1 UNK         0.3055 
    106 H106       24.3702  -32.9267  -38.0208 H         1 UNK         0.1106 
    107 H107       25.9063  -33.3095  -39.9503 H         1 UNK         0.0828 
    108 H108       24.8311  -34.6794  -39.7157 H         1 UNK         0.0828 
    109 H109       24.5257  -33.5419  -41.0186 H         1 UNK         0.0828 
    110 H110       22.0228  -31.9041  -40.4622 H         1 UNK         0.2931 
    111 H111       20.0685  -33.9587  -39.7858 H         1 UNK         0.0412 
    112 H112       19.5583  -31.0485  -37.0760 H         1 UNK         0.3472 
    113 H113       21.0752  -31.2895  -37.9065 H         1 UNK         0.3472 
    114 H114       18.5303  -32.7148  -41.2647 H         1 UNK         0.0970 
    115 H115       19.6705  -31.4030  -41.4113 H         1 UNK         0.0970 
    116 H116       19.3591  -33.9576  -44.7463 H         1 UNK         0.0612 
    117 H117       18.1590  -33.7769  -43.4967 H         1 UNK         0.0612 
@<TRIPOS>BOND
     1    1    2 1    
     2    1   62 1    
     3    1   63 1    
     4    1   64 1    
     5    2    3 2    
     6    2    4 am   BACKBONE|DICT|INTERRES
     7    4    5 1    
     8    4   65 1    
     9    5    6 1    
    10    5   25 1    
    11    5   66 1    
    12    6    7 1    
    13    6   67 1    
    14    6   68 1    
    15    7    8 1    
    16    8    9 1    
    17    8   69 1    
    18    8   70 1    
    19    9   10 ar   
    20    9   14 ar   
    21   10   11 ar   
    22   10   71 1    
    23   11   12 ar   
    24   11   61 1    
    25   12   13 ar   
    26   12   72 1    
    27   13   14 ar   
    28   13   15 1    
    29   14   73 1    
    30   15   16 1    
    31   15   74 1    
    32   15   75 1    
    33   16   17 1    
    34   17   18 1    
    35   17   76 1    
    36   17   77 1    
    37   18   19 1    
    38   18   27 1    
    39   18   78 1    
    40   19   20 am   BACKBONE|DICT|INTERRES
    41   19   79 1    
    42   20   21 2    
    43   20   22 1    
    44   22   23 1    
    45   22   24 1    
    46   22   80 1    
    47   23   81 1    
    48   23   82 1    
    49   23   83 1    
    50   24   25 am   BACKBONE|DICT|INTERRES
    51   24   84 1    
    52   25   26 2    
    53   27   28 2    
    54   27   29 am   BACKBONE|DICT|INTERRES
    55   29   30 1    
    56   29   85 1    
    57   30   31 1    
    58   30   32 1    
    59   30   86 1    
    60   31   87 1    
    61   31   88 1    
    62   31   89 1    
    63   32   33 2    
    64   32   34 am   BACKBONE|DICT|INTERRES
    65   34   35 1    
    66   34   90 1    
    67   35   36 1    
    68   35   37 1    
    69   35   91 1    
    70   36   92 1    
    71   36   93 1    
    72   36   94 1    
    73   37   38 2    
    74   37   39 am   BACKBONE|DICT|INTERRES
    75   39   40 1    
    76   39   95 1    
    77   40   41 1    
    78   40   42 1    
    79   40   96 1    
    80   41   97 1    
    81   41   98 1    
    82   41   99 1    
    83   42   43 2    
    84   42   44 am   BACKBONE|DICT|INTERRES
    85   44   45 1    
    86   44  100 1    
    87   45   46 1    
    88   45   47 1    
    89   45  101 1    
    90   46  102 1    
    91   46  103 1    
    92   46  104 1    
    93   47   48 2    
    94   47   49 am   BACKBONE|DICT|INTERRES
    95   49   50 1    
    96   49  105 1    
    97   50   51 1    
    98   50   52 1    
    99   50  106 1    
   100   51  107 1    
   101   51  108 1    
   102   51  109 1    
   103   52   53 2    
   104   52   54 am   BACKBONE|DICT|INTERRES
   105   54   55 1    
   106   54  110 1    
   107   55   56 1    
   108   55   59 1    
   109   55  111 1    
   110   56   57 am   BACKBONE|DICT|INTERRES
   111   56   58 2    
   112   57  112 1    
   113   57  113 1    
   114   59   60 1    
   115   59  114 1    
   116   59  115 1    
   117   60   61 1    
   118   61  116 1    
   119   61  117 1    
@<TRIPOS>SUBSTRUCTURE
     1 UNK         1 GROUP             0       ****    0 ROOT    
