@<TRIPOS>MOLECULE
3R8
117   119    1
SMALL
USER_CHARGES


@<TRIPOS>ATOM
      1 CA         21.3429  -31.5072  -46.8412 C.3       0 UNK        -0.2013 
      2 C          20.6159  -30.3556  -46.1651 C.2       0 UNK         0.4866 
      3 O          21.1445  -29.7581  -45.2285 O.2       0 UNK        -0.5176 
      4 N          19.4086  -30.0271  -46.6411 N.am      1 UNK        -0.4884 
      5 CA         18.5236  -28.9766  -46.1155 C.3       1 UNK         0.0853 
      6 C6         17.0496  -29.2270  -46.5296 C.3       10 UNK        -0.0849 
      7 S7         16.4300  -30.8395  -45.9361 S.3       10 UNK        -0.2776 
      8 C8         15.2535  -30.3422  -44.6379 C.3       10 UNK         0.0316 
      9 C9         15.9339  -29.6157  -43.4858 C.ar      10 UNK        -0.0863 
     10 C10        16.7496  -30.3189  -42.5932 C.ar      10 UNK        -0.1009 
     11 C11        17.3545  -29.6603  -41.5188 C.ar      10 UNK        -0.0712 
     12 C12        17.1388  -28.2914  -41.3392 C.ar      10 UNK        -0.0894 
     13 C13        16.3231  -27.5788  -42.2219 C.ar      10 UNK        -0.0745 
     14 C14        15.7253  -28.2456  -43.2952 C.ar      10 UNK        -0.0972 
     15 C15        16.0514  -26.0992  -41.9921 C.3       10 UNK         0.0209 
     16 S16        17.0148  -25.0349  -43.1096 S.3       10 UNK        -0.2568 
     17 C17        18.7060  -25.1892  -42.4383 C.3       10 UNK        -0.0983 
     18 CA         19.7212  -25.6230  -43.5235 C.3       3 UNK         0.0876 
     19 N          19.7621  -24.6519  -44.6267 N.am      3 UNK        -0.4424 
     20 C          20.3349  -24.7030  -45.8425 C.2       2 UNK         0.4918 
     21 O          20.3567  -23.6970  -46.5492 O.2       2 UNK        -0.4875 
     22 CA         20.9516  -25.9920  -46.4378 C.3       2 UNK         0.0481 
     23 CB         22.4495  -26.1321  -46.1209 C.3       2 UNK        -0.1831 
     24 N          20.2583  -27.2437  -46.1444 N.am      2 UNK        -0.4498 
     25 C          19.0156  -27.5671  -46.5234 C.2       1 UNK         0.5027 
     26 O          18.2914  -26.8218  -47.1860 O.2       1 UNK        -0.4969 
     27 C          21.1089  -25.8386  -42.8919 C.2       3 UNK         0.5005 
     28 O          21.4505  -26.9747  -42.5709 O.2       3 UNK        -0.5279 
     29 N          21.8852  -24.7506  -42.7569 N.am      4 UNK        -0.4463 
     30 CA         23.2204  -24.6622  -42.1520 C.3       4 UNK         0.0283 
     31 CB         24.2758  -25.4318  -42.9761 C.3       4 UNK        -0.1875 
     32 C          23.2289  -25.0530  -40.6626 C.2       4 UNK         0.4949 
     33 O          23.1530  -24.1700  -39.8078 O.2       4 UNK        -0.5039 
     34 N          23.3256  -26.3547  -40.3807 N.am      5 UNK        -0.4663 
     35 CA         23.3728  -26.9553  -39.0520 C.3       5 UNK         0.0242 
     36 CB         24.7846  -26.8000  -38.4540 C.3       5 UNK        -0.1982 
     37 C          22.9958  -28.4351  -39.1796 C.2       5 UNK         0.5017 
     38 O          23.0794  -28.9901  -40.2772 O.2       5 UNK        -0.5012 
     39 N          22.6453  -29.0640  -38.0486 N.am      6 UNK        -0.4439 
     40 CA         22.2090  -30.4651  -37.9435 C.3       6 UNK         0.0297 
     41 CB         21.9018  -30.7893  -36.4727 C.3       6 UNK        -0.2006 
     42 C          23.1847  -31.5073  -38.5264 C.2       6 UNK         0.4892 
     43 O          22.7421  -32.5780  -38.9414 O.2       6 UNK        -0.5089 
     44 N          24.4819  -31.1733  -38.5637 N.am      7 UNK        -0.4243 
     45 CA         25.5377  -31.9797  -39.1777 C.3       7 UNK         0.0196 
     46 CB         26.9042  -31.4487  -38.7144 C.3       7 UNK        -0.2007 
     47 C          25.4731  -32.0206  -40.7170 C.2       7 UNK         0.5020 
     48 O          25.9835  -32.9751  -41.3041 O.2       7 UNK        -0.5147 
     49 N          24.8747  -30.9999  -41.3496 N.am      8 UNK        -0.4734 
     50 CA         24.7102  -30.9260  -42.8050 C.3       8 UNK         0.0238 
     51 CB         24.5876  -29.4546  -43.2373 C.3       8 UNK        -0.1912 
     52 C          23.4911  -31.7236  -43.2933 C.2       8 UNK         0.5038 
     53 O          23.5263  -32.2416  -44.4099 O.2       8 UNK        -0.5046 
     54 N          22.4482  -31.7912  -42.4556 N.am      9 UNK        -0.4200 
     55 CA         21.1545  -32.4346  -42.7238 C.3       9 UNK         0.0839 
     56 C          21.2682  -33.9441  -43.0704 C.2       9 UNK         0.5513 
     57 N          20.4170  -34.4396  -43.9590 N.am      9 UNK        -0.7519 
     58 O          22.0793  -34.6766  -42.5078 O.2       9 UNK        -0.4960 
     59 C59        20.1672  -32.2259  -41.5474 C.3       10 UNK        -0.0876 
     60 S60        19.9546  -30.4677  -41.1037 S.3       10 UNK        -0.2414 
     61 C61        18.2291  -30.4221  -40.5375 C.3       10 UNK         0.0169 
     62 H62        20.8523  -31.8155  -47.7641 H         1 UNK         0.0903 
     63 H63        22.3653  -31.2160  -47.0807 H         1 UNK         0.0903 
     64 H64        21.3850  -32.3667  -46.1728 H         1 UNK         0.0903 
     65 H65        19.0307  -30.5489  -47.4192 H         1 UNK         0.3096 
     66 H66        18.5660  -29.0126  -45.0235 H         1 UNK         0.1121 
     67 H67        16.9485  -29.2039  -47.6163 H         1 UNK         0.0849 
     68 H68        16.4030  -28.4324  -46.1532 H         1 UNK         0.0849 
     69 H69        14.4691  -29.7258  -45.0801 H         1 UNK         0.0865 
     70 H70        14.7556  -31.2338  -44.2540 H         1 UNK         0.0865 
     71 H71        16.9127  -31.3785  -42.7357 H         1 UNK         0.1346 
     72 H72        17.6004  -27.7840  -40.5032 H         1 UNK         0.1412 
     73 H73        15.0886  -27.6953  -43.9747 H         1 UNK         0.1426 
     74 H74        16.2576  -25.8207  -40.9574 H         1 UNK         0.0716 
     75 H75        14.9904  -25.9008  -42.1511 H         1 UNK         0.0716 
     76 H76        18.7051  -25.9016  -41.6119 H         1 UNK         0.0695 
     77 H77        18.9859  -24.2273  -42.0045 H         1 UNK         0.0695 
     78 H78        19.3770  -26.5878  -43.8888 H         1 UNK         0.0983 
     79 H79        19.3141  -23.7780  -44.3957 H         1 UNK         0.3095 
     80 H80        20.8851  -25.8667  -47.5207 H         1 UNK         0.0454 
     81 H81        22.6254  -26.5493  -45.1317 H         1 UNK         0.0851 
     82 H82        22.9607  -25.1698  -46.1734 H         1 UNK         0.0851 
     83 H83        22.9368  -26.7926  -46.8381 H         1 UNK         0.0851 
     84 H84        20.7811  -27.9575  -45.6401 H         1 UNK         0.2976 
     85 H85        21.4925  -23.8665  -43.0497 H         1 UNK         0.3116 
     86 H86        23.4975  -23.6074  -42.1913 H         1 UNK         0.0646 
     87 H87        24.0361  -26.4892  -43.0813 H         1 UNK         0.0847 
     88 H88        25.2581  -25.3684  -42.5060 H         1 UNK         0.0847 
     89 H89        24.3737  -25.0122  -43.9769 H         1 UNK         0.0847 
     90 H90        23.2368  -27.0269  -41.1374 H         1 UNK         0.3040 
     91 H91        22.6375  -26.4625  -38.4120 H         1 UNK         0.1015 
     92 H92        25.5395  -27.2796  -39.0787 H         1 UNK         0.0786 
     93 H93        24.8469  -27.2482  -37.4618 H         1 UNK         0.0786 
     94 H94        25.0591  -25.7504  -38.3473 H         1 UNK         0.0786 
     95 H95        22.6316  -28.5305  -37.1908 H         1 UNK         0.3172 
     96 H96        21.2781  -30.5520  -38.5048 H         1 UNK         0.0595 
     97 H97        22.7851  -30.6816  -35.8419 H         1 UNK         0.0839 
     98 H98        21.5486  -31.8161  -36.3648 H         1 UNK         0.0839 
     99 H99        21.1215  -30.1399  -36.0754 H         1 UNK         0.0839 
    100 H100       24.7510  -30.2731  -38.1951 H         1 UNK         0.2998 
    101 H101       25.4301  -33.0061  -38.8201 H         1 UNK         0.0822 
    102 H102       26.9988  -31.4875  -37.6290 H         1 UNK         0.0787 
    103 H103       27.7165  -32.0469  -39.1300 H         1 UNK         0.0787 
    104 H104       27.0649  -30.4171  -39.0306 H         1 UNK         0.0787 
    105 H105       24.4251  -30.2669  -40.8070 H         1 UNK         0.3055 
    106 H106       25.5970  -31.3465  -43.2851 H         1 UNK         0.1106 
    107 H107       23.6737  -28.9962  -42.8566 H         1 UNK         0.0828 
    108 H108       24.5548  -29.3726  -44.3246 H         1 UNK         0.0828 
    109 H109       25.4342  -28.8623  -42.8903 H         1 UNK         0.0828 
    110 H110       22.5225  -31.3190  -41.5663 H         1 UNK         0.2931 
    111 H111       20.7392  -31.9272  -43.5953 H         1 UNK         0.0412 
    112 H112       19.7298  -33.8551  -44.4084 H         1 UNK         0.3472 
    113 H113       20.4619  -35.4214  -44.1838 H         1 UNK         0.3472 
    114 H114       20.5084  -32.7618  -40.6593 H         1 UNK         0.0970 
    115 H115       19.1944  -32.6474  -41.8064 H         1 UNK         0.0970 
    116 H116       18.2004  -29.9389  -39.5597 H         1 UNK         0.0612 
    117 H117       17.8404  -31.4294  -40.3831 H         1 UNK         0.0612 
@<TRIPOS>BOND
     1    1    2 1    
     2    1   62 1    
     3    1   63 1    
     4    1   64 1    
     5    2    3 2    
     6    2    4 am   BACKBONE|DICT|INTERRES
     7    4    5 1    
     8    4   65 1    
     9    5    6 1    
    10    5   25 1    
    11    5   66 1    
    12    6    7 1    
    13    6   67 1    
    14    6   68 1    
    15    7    8 1    
    16    8    9 1    
    17    8   69 1    
    18    8   70 1    
    19    9   10 ar   
    20    9   14 ar   
    21   10   11 ar   
    22   10   71 1    
    23   11   12 ar   
    24   11   61 1    
    25   12   13 ar   
    26   12   72 1    
    27   13   14 ar   
    28   13   15 1    
    29   14   73 1    
    30   15   16 1    
    31   15   74 1    
    32   15   75 1    
    33   16   17 1    
    34   17   18 1    
    35   17   76 1    
    36   17   77 1    
    37   18   19 1    
    38   18   27 1    
    39   18   78 1    
    40   19   20 am   BACKBONE|DICT|INTERRES
    41   19   79 1    
    42   20   21 2    
    43   20   22 1    
    44   22   23 1    
    45   22   24 1    
    46   22   80 1    
    47   23   81 1    
    48   23   82 1    
    49   23   83 1    
    50   24   25 am   BACKBONE|DICT|INTERRES
    51   24   84 1    
    52   25   26 2    
    53   27   28 2    
    54   27   29 am   BACKBONE|DICT|INTERRES
    55   29   30 1    
    56   29   85 1    
    57   30   31 1    
    58   30   32 1    
    59   30   86 1    
    60   31   87 1    
    61   31   88 1    
    62   31   89 1    
    63   32   33 2    
    64   32   34 am   BACKBONE|DICT|INTERRES
    65   34   35 1    
    66   34   90 1    
    67   35   36 1    
    68   35   37 1    
    69   35   91 1    
    70   36   92 1    
    71   36   93 1    
    72   36   94 1    
    73   37   38 2    
    74   37   39 am   BACKBONE|DICT|INTERRES
    75   39   40 1    
    76   39   95 1    
    77   40   41 1    
    78   40   42 1    
    79   40   96 1    
    80   41   97 1    
    81   41   98 1    
    82   41   99 1    
    83   42   43 2    
    84   42   44 am   BACKBONE|DICT|INTERRES
    85   44   45 1    
    86   44  100 1    
    87   45   46 1    
    88   45   47 1    
    89   45  101 1    
    90   46  102 1    
    91   46  103 1    
    92   46  104 1    
    93   47   48 2    
    94   47   49 am   BACKBONE|DICT|INTERRES
    95   49   50 1    
    96   49  105 1    
    97   50   51 1    
    98   50   52 1    
    99   50  106 1    
   100   51  107 1    
   101   51  108 1    
   102   51  109 1    
   103   52   53 2    
   104   52   54 am   BACKBONE|DICT|INTERRES
   105   54   55 1    
   106   54  110 1    
   107   55   56 1    
   108   55   59 1    
   109   55  111 1    
   110   56   57 am   BACKBONE|DICT|INTERRES
   111   56   58 2    
   112   57  112 1    
   113   57  113 1    
   114   59   60 1    
   115   59  114 1    
   116   59  115 1    
   117   60   61 1    
   118   61  116 1    
   119   61  117 1    
@<TRIPOS>SUBSTRUCTURE
     1 UNK         1 GROUP             0       ****    0 ROOT    
