@<TRIPOS>MOLECULE
3R8
117   119    1
SMALL
USER_CHARGES


@<TRIPOS>ATOM
      1 CA         12.8339  -25.3989  -45.9232 C.3       0 UNK        -0.2013 
      2 C          14.2098  -25.9013  -46.3346 C.2       0 UNK         0.4866 
      3 O          14.6806  -25.5747  -47.4249 O.2       0 UNK        -0.5176 
      4 N          14.8537  -26.7005  -45.4755 N.am      1 UNK        -0.4884 
      5 CA         16.2019  -27.2397  -45.6839 C.3       1 UNK         0.0853 
      6 C6         16.5392  -28.3611  -44.6725 C.3       10 UNK        -0.0849 
      7 S7         15.3886  -29.7755  -44.7371 S.3       10 UNK        -0.2776 
      8 C8         15.0397  -30.0423  -42.9661 C.3       10 UNK         0.0316 
      9 C9         16.3114  -30.3157  -42.1730 C.ar      10 UNK        -0.0863 
     10 C10        16.9984  -31.5205  -42.3448 C.ar      10 UNK        -0.1009 
     11 C11        18.1950  -31.7616  -41.6611 C.ar      10 UNK        -0.0712 
     12 C12        18.6751  -30.8015  -40.7648 C.ar      10 UNK        -0.0894 
     13 C13        17.9963  -29.5939  -40.5805 C.ar      10 UNK        -0.0745 
     14 C14        16.8128  -29.3576  -41.2854 C.ar      10 UNK        -0.0972 
     15 C15        18.5365  -28.5550  -39.6076 C.3       10 UNK         0.0209 
     16 S16        20.1050  -27.8216  -40.1735 S.3       10 UNK        -0.2568 
     17 C17        19.5686  -26.6855  -41.4967 C.3       10 UNK        -0.0983 
     18 CA         20.5512  -26.6716  -42.6947 C.3       3 UNK         0.0876 
     19 N          19.9371  -26.0661  -43.8788 N.am      3 UNK        -0.4424 
     20 C          20.4750  -25.9916  -45.1055 C.2       2 UNK         0.4918 
     21 O          21.6051  -26.3906  -45.3923 O.2       2 UNK        -0.4875 
     22 CA         19.5578  -25.4272  -46.2086 C.3       2 UNK         0.0481 
     23 CB         20.2548  -25.3514  -47.5797 C.3       2 UNK        -0.1831 
     24 N          18.3532  -26.2525  -46.3313 N.am      2 UNK        -0.4498 
     25 C          17.2643  -26.1304  -45.5621 C.2       1 UNK         0.5027 
     26 O          17.1293  -25.2435  -44.7138 O.2       1 UNK        -0.4969 
     27 C          21.8945  -25.9943  -42.3475 C.2       3 UNK         0.5005 
     28 O          21.9339  -24.7751  -42.1602 O.2       3 UNK        -0.5279 
     29 N          22.9604  -26.7991  -42.2846 N.am      4 UNK        -0.4463 
     30 CA         24.3484  -26.4032  -42.0720 C.3       4 UNK         0.0283 
     31 CB         24.8791  -25.6484  -43.3102 C.3       4 UNK        -0.1875 
     32 C          25.1741  -27.6710  -41.8071 C.2       4 UNK         0.4949 
     33 O          24.6328  -28.7795  -41.8837 O.2       4 UNK        -0.5039 
     34 N          26.4690  -27.4763  -41.5151 N.am      5 UNK        -0.4663 
     35 CA         27.5106  -28.5023  -41.3530 C.3       5 UNK         0.0242 
     36 CB         27.8271  -29.1607  -42.7129 C.3       5 UNK        -0.1982 
     37 C          27.1892  -29.5262  -40.2479 C.2       5 UNK         0.5017 
     38 O          27.2427  -30.7330  -40.4872 O.2       5 UNK        -0.5012 
     39 N          26.8434  -29.0066  -39.0599 N.am      6 UNK        -0.4439 
     40 CA         26.4102  -29.7472  -37.8661 C.3       6 UNK         0.0297 
     41 CB         27.5471  -30.6327  -37.3102 C.3       6 UNK        -0.2006 
     42 C          25.0947  -30.5188  -38.0974 C.2       6 UNK         0.4892 
     43 O          24.9636  -31.6652  -37.6649 O.2       6 UNK        -0.5089 
     44 N          24.1481  -29.8480  -38.7709 N.am      7 UNK        -0.4243 
     45 CA         22.8093  -30.3145  -39.1418 C.3       7 UNK         0.0196 
     46 CB         21.9315  -30.5403  -37.8919 C.3       7 UNK        -0.2007 
     47 C          22.8385  -31.5219  -40.0958 C.2       7 UNK         0.5020 
     48 O          22.1509  -32.5161  -39.8631 O.2       7 UNK        -0.5147 
     49 N          23.6060  -31.3930  -41.1854 N.am      8 UNK        -0.4734 
     50 CA         23.7168  -32.3842  -42.2638 C.3       8 UNK         0.0238 
     51 CB         25.1487  -32.3424  -42.8249 C.3       8 UNK        -0.1912 
     52 C          22.6683  -32.1733  -43.3769 C.2       8 UNK         0.5038 
     53 O          22.8702  -32.6452  -44.4964 O.2       8 UNK        -0.5046 
     54 N          21.5890  -31.4474  -43.0590 N.am      9 UNK        -0.4200 
     55 CA         20.4921  -31.0287  -43.9472 C.3       9 UNK         0.0839 
     56 C          20.8683  -29.8964  -44.9473 C.2       9 UNK         0.5513 
     57 N          22.0622  -29.3200  -44.8805 N.am      9 UNK        -0.7519 
     58 O          20.0395  -29.4879  -45.7562 O.2       9 UNK        -0.4960 
     59 C59        19.7417  -32.2040  -44.6438 C.3       10 UNK        -0.0876 
     60 S60        19.0855  -33.5901  -43.6307 S.3       10 UNK        -0.2414 
     61 C61        18.9979  -33.0387  -41.8879 C.3       10 UNK         0.0169 
     62 H62        12.5367  -25.7773  -44.9453 H         1 UNK         0.0903 
     63 H63        12.8297  -24.3100  -45.8809 H         1 UNK         0.0903 
     64 H64        12.0861  -25.7149  -46.6502 H         1 UNK         0.0903 
     65 H65        14.4246  -26.9311  -44.5913 H         1 UNK         0.3096 
     66 H66        16.2464  -27.6539  -46.6939 H         1 UNK         0.1121 
     67 H67        17.5427  -28.7537  -44.8491 H         1 UNK         0.0849 
     68 H68        16.5535  -27.9490  -43.6625 H         1 UNK         0.0849 
     69 H69        14.3594  -30.8887  -42.8611 H         1 UNK         0.0865 
     70 H70        14.5106  -29.1750  -42.5682 H         1 UNK         0.0865 
     71 H71        16.6152  -32.2562  -43.0386 H         1 UNK         0.1346 
     72 H72        19.5921  -30.9837  -40.2220 H         1 UNK         0.1412 
     73 H73        16.2849  -28.4238  -41.1474 H         1 UNK         0.1426 
     74 H74        18.7045  -29.0320  -38.6410 H         1 UNK         0.0716 
     75 H75        17.8087  -27.7609  -39.4328 H         1 UNK         0.0716 
     76 H76        19.4389  -25.6852  -41.0793 H         1 UNK         0.0695 
     77 H77        18.5813  -27.0009  -41.8374 H         1 UNK         0.0695 
     78 H78        20.7512  -27.7093  -42.9645 H         1 UNK         0.0983 
     79 H79        19.0064  -25.6860  -43.7587 H         1 UNK         0.3095 
     80 H80        19.2809  -24.4107  -45.9212 H         1 UNK         0.0454 
     81 H81        20.5667  -26.3359  -47.9308 H         1 UNK         0.0851 
     82 H82        21.1468  -24.7257  -47.5295 H         1 UNK         0.0851 
     83 H83        19.5989  -24.9179  -48.3348 H         1 UNK         0.0851 
     84 H84        18.4235  -27.0455  -46.9542 H         1 UNK         0.2976 
     85 H85        22.8515  -27.7983  -42.4068 H         1 UNK         0.3116 
     86 H86        24.4038  -25.7624  -41.1899 H         1 UNK         0.0646 
     87 H87        24.8297  -26.2683  -44.2066 H         1 UNK         0.0847 
     88 H88        25.9175  -25.3419  -43.1815 H         1 UNK         0.0847 
     89 H89        24.3069  -24.7415  -43.5052 H         1 UNK         0.0847 
     90 H90        26.7953  -26.5213  -41.4498 H         1 UNK         0.3040 
     91 H91        28.4145  -27.9846  -41.0268 H         1 UNK         0.1015 
     92 H92        26.9680  -29.6984  -43.1121 H         1 UNK         0.0786 
     93 H93        28.6462  -29.8754  -42.6229 H         1 UNK         0.0786 
     94 H94        28.1273  -28.4176  -43.4516 H         1 UNK         0.0786 
     95 H95        26.8321  -27.9988  -38.9789 H         1 UNK         0.3172 
     96 H96        26.1869  -28.9954  -37.1075 H         1 UNK         0.0595 
     97 H97        27.2658  -31.0704  -36.3516 H         1 UNK         0.0839 
     98 H98        28.4572  -30.0558  -37.1469 H         1 UNK         0.0839 
     99 H99        27.7876  -31.4572  -37.9820 H         1 UNK         0.0839 
    100 H100       24.3909  -28.9274  -39.1074 H         1 UNK         0.2998 
    101 H101       22.3636  -29.5003  -39.7115 H         1 UNK         0.0822 
    102 H102       20.9042  -30.7747  -38.1721 H         1 UNK         0.0787 
    103 H103       22.2972  -31.3666  -37.2817 H         1 UNK         0.0787 
    104 H104       21.8978  -29.6486  -37.2660 H         1 UNK         0.0787 
    105 H105       24.1149  -30.5217  -41.3252 H         1 UNK         0.3055 
    106 H106       23.5456  -33.3827  -41.8552 H         1 UNK         0.1106 
    107 H107       25.3059  -33.1238  -43.5695 H         1 UNK         0.0828 
    108 H108       25.3606  -31.3865  -43.3036 H         1 UNK         0.0828 
    109 H109       25.8876  -32.4966  -42.0387 H         1 UNK         0.0828 
    110 H110       21.5326  -31.1039  -42.1133 H         1 UNK         0.2931 
    111 H111       19.7815  -30.5282  -43.2950 H         1 UNK         0.0412 
    112 H112       22.7721  -29.6676  -44.2578 H         1 UNK         0.3472 
    113 H113       22.2478  -28.5247  -45.4761 H         1 UNK         0.3472 
    114 H114       18.8821  -31.8041  -45.1852 H         1 UNK         0.0970 
    115 H115       20.3805  -32.6421  -45.4120 H         1 UNK         0.0970 
    116 H116       20.0107  -32.9389  -41.4993 H         1 UNK         0.0612 
    117 H117       18.5347  -33.8355  -41.3052 H         1 UNK         0.0612 
@<TRIPOS>BOND
     1    1    2 1    
     2    1   62 1    
     3    1   63 1    
     4    1   64 1    
     5    2    3 2    
     6    2    4 am   BACKBONE|DICT|INTERRES
     7    4    5 1    
     8    4   65 1    
     9    5    6 1    
    10    5   25 1    
    11    5   66 1    
    12    6    7 1    
    13    6   67 1    
    14    6   68 1    
    15    7    8 1    
    16    8    9 1    
    17    8   69 1    
    18    8   70 1    
    19    9   10 ar   
    20    9   14 ar   
    21   10   11 ar   
    22   10   71 1    
    23   11   12 ar   
    24   11   61 1    
    25   12   13 ar   
    26   12   72 1    
    27   13   14 ar   
    28   13   15 1    
    29   14   73 1    
    30   15   16 1    
    31   15   74 1    
    32   15   75 1    
    33   16   17 1    
    34   17   18 1    
    35   17   76 1    
    36   17   77 1    
    37   18   19 1    
    38   18   27 1    
    39   18   78 1    
    40   19   20 am   BACKBONE|DICT|INTERRES
    41   19   79 1    
    42   20   21 2    
    43   20   22 1    
    44   22   23 1    
    45   22   24 1    
    46   22   80 1    
    47   23   81 1    
    48   23   82 1    
    49   23   83 1    
    50   24   25 am   BACKBONE|DICT|INTERRES
    51   24   84 1    
    52   25   26 2    
    53   27   28 2    
    54   27   29 am   BACKBONE|DICT|INTERRES
    55   29   30 1    
    56   29   85 1    
    57   30   31 1    
    58   30   32 1    
    59   30   86 1    
    60   31   87 1    
    61   31   88 1    
    62   31   89 1    
    63   32   33 2    
    64   32   34 am   BACKBONE|DICT|INTERRES
    65   34   35 1    
    66   34   90 1    
    67   35   36 1    
    68   35   37 1    
    69   35   91 1    
    70   36   92 1    
    71   36   93 1    
    72   36   94 1    
    73   37   38 2    
    74   37   39 am   BACKBONE|DICT|INTERRES
    75   39   40 1    
    76   39   95 1    
    77   40   41 1    
    78   40   42 1    
    79   40   96 1    
    80   41   97 1    
    81   41   98 1    
    82   41   99 1    
    83   42   43 2    
    84   42   44 am   BACKBONE|DICT|INTERRES
    85   44   45 1    
    86   44  100 1    
    87   45   46 1    
    88   45   47 1    
    89   45  101 1    
    90   46  102 1    
    91   46  103 1    
    92   46  104 1    
    93   47   48 2    
    94   47   49 am   BACKBONE|DICT|INTERRES
    95   49   50 1    
    96   49  105 1    
    97   50   51 1    
    98   50   52 1    
    99   50  106 1    
   100   51  107 1    
   101   51  108 1    
   102   51  109 1    
   103   52   53 2    
   104   52   54 am   BACKBONE|DICT|INTERRES
   105   54   55 1    
   106   54  110 1    
   107   55   56 1    
   108   55   59 1    
   109   55  111 1    
   110   56   57 am   BACKBONE|DICT|INTERRES
   111   56   58 2    
   112   57  112 1    
   113   57  113 1    
   114   59   60 1    
   115   59  114 1    
   116   59  115 1    
   117   60   61 1    
   118   61  116 1    
   119   61  117 1    
@<TRIPOS>SUBSTRUCTURE
     1 UNK         1 GROUP             0       ****    0 ROOT    
