@<TRIPOS>MOLECULE
3R8
117   119    1
SMALL
USER_CHARGES


@<TRIPOS>ATOM
      1 CA         20.0589  -25.3562  -44.6065 C.3       0 UNK        -0.2013 
      2 C          20.7542  -26.5929  -44.0592 C.2       0 UNK         0.4866 
      3 O          21.3449  -26.5296  -42.9787 O.2       0 UNK        -0.5176 
      4 N          20.6824  -27.7024  -44.8034 N.am      1 UNK        -0.4884 
      5 CA         21.4741  -28.9367  -44.6785 C.3       1 UNK         0.0853 
      6 C6         21.1650  -29.9810  -45.7973 C.3       10 UNK        -0.0849 
      7 S7         20.2490  -29.3326  -47.2469 S.3       10 UNK        -0.2776 
      8 C8         18.6535  -30.2186  -47.1511 C.3       10 UNK         0.0316 
      9 C9         18.0084  -30.1898  -45.7670 C.ar      10 UNK        -0.0863 
     10 C10        17.9091  -31.3705  -45.0248 C.ar      10 UNK        -0.1009 
     11 C11        17.2950  -31.3870  -43.7649 C.ar      10 UNK        -0.0712 
     12 C12        16.7710  -30.1900  -43.2596 C.ar      10 UNK        -0.0894 
     13 C13        16.8264  -29.0067  -44.0061 C.ar      10 UNK        -0.0745 
     14 C14        17.4589  -29.0114  -45.2541 C.ar      10 UNK        -0.0972 
     15 C15        16.1078  -27.7508  -43.5236 C.3       10 UNK         0.0209 
     16 S16        17.2448  -26.4278  -42.9993 S.3       10 UNK        -0.2568 
     17 C17        17.0875  -26.4417  -41.1795 C.3       10 UNK        -0.0983 
     18 CA         18.4405  -26.3679  -40.4175 C.3       3 UNK         0.0876 
     19 N          19.3839  -27.4032  -40.8362 N.am      3 UNK        -0.4424 
     20 C          19.2656  -28.6838  -40.4724 C.2       2 UNK         0.4918 
     21 O          18.3951  -29.1050  -39.7086 O.2       2 UNK        -0.4875 
     22 CA         20.2706  -29.6490  -41.1016 C.3       2 UNK         0.0481 
     23 CB         20.0046  -31.1270  -40.7773 C.3       2 UNK        -0.1831 
     24 N          20.3549  -29.4008  -42.5389 N.am      2 UNK        -0.4498 
     25 C          21.4454  -29.5970  -43.2844 C.2       1 UNK         0.5027 
     26 O          22.4126  -30.2645  -42.9122 O.2       1 UNK        -0.4969 
     27 C          19.0457  -24.9497  -40.3646 C.2       3 UNK         0.5005 
     28 O          18.4180  -24.0832  -39.7517 O.2       3 UNK        -0.5279 
     29 N          20.2370  -24.7111  -40.9410 N.am      4 UNK        -0.4463 
     30 CA         20.9226  -23.4148  -40.8624 C.3       4 UNK         0.0283 
     31 CB         20.2302  -22.3555  -41.7473 C.3       4 UNK        -0.1875 
     32 C          22.4101  -23.5146  -41.2207 C.2       4 UNK         0.4949 
     33 O          23.2530  -23.0609  -40.4470 O.2       4 UNK        -0.5039 
     34 N          22.7034  -24.0636  -42.4048 N.am      5 UNK        -0.4663 
     35 CA         24.0421  -24.0965  -42.9976 C.3       5 UNK         0.0242 
     36 CB         23.9081  -24.1802  -44.5273 C.3       5 UNK        -0.1982 
     37 C          24.9146  -25.2499  -42.4813 C.2       5 UNK         0.5017 
     38 O          26.1388  -25.1125  -42.4745 O.2       5 UNK        -0.5012 
     39 N          24.2885  -26.3617  -42.0812 N.am      6 UNK        -0.4439 
     40 CA         24.9547  -27.5693  -41.5980 C.3       6 UNK         0.0297 
     41 CB         25.3781  -28.4434  -42.7984 C.3       6 UNK        -0.2006 
     42 C          24.0480  -28.3046  -40.5997 C.2       6 UNK         0.4892 
     43 O          23.0353  -27.7490  -40.1672 O.2       6 UNK        -0.5089 
     44 N          24.4455  -29.5310  -40.2415 N.am      7 UNK        -0.4243 
     45 CA         23.7501  -30.4314  -39.3202 C.3       7 UNK         0.0196 
     46 CB         24.3075  -30.2404  -37.8959 C.3       7 UNK        -0.2007 
     47 C          23.8568  -31.8834  -39.8217 C.2       7 UNK         0.5020 
     48 O          24.0578  -32.7935  -39.0164 O.2       7 UNK        -0.5147 
     49 N          23.7637  -32.0747  -41.1454 N.am      8 UNK        -0.4734 
     50 CA         23.9854  -33.3606  -41.8181 C.3       8 UNK         0.0238 
     51 CB         25.0804  -33.1760  -42.8825 C.3       8 UNK        -0.1912 
     52 C          22.7171  -33.9358  -42.4683 C.2       8 UNK         0.5038 
     53 O          22.5854  -35.1582  -42.5333 O.2       8 UNK        -0.5046 
     54 N          21.8258  -33.0613  -42.9551 N.am      9 UNK        -0.4200 
     55 CA         20.6249  -33.3948  -43.7434 C.3       9 UNK         0.0839 
     56 C          20.9570  -33.9692  -45.1601 C.2       9 UNK         0.5513 
     57 N          22.1244  -33.6747  -45.7219 N.am      9 UNK        -0.7519 
     58 O          20.1572  -34.6659  -45.7771 O.2       9 UNK        -0.4960 
     59 C59        19.5678  -34.1972  -42.9248 C.3       10 UNK        -0.0876 
     60 S60        17.8711  -34.1947  -43.6187 S.3       10 UNK        -0.2414 
     61 C61        17.0888  -32.6768  -42.9566 C.3       10 UNK         0.0169 
     62 H62        20.7838  -24.6922  -45.0759 H         1 UNK         0.0903 
     63 H63        19.3045  -25.6160  -45.3490 H         1 UNK         0.0903 
     64 H64        19.5631  -24.8084  -43.8069 H         1 UNK         0.0903 
     65 H65        20.1394  -27.6768  -45.6568 H         1 UNK         0.3096 
     66 H66        22.5072  -28.6131  -44.8203 H         1 UNK         0.1121 
     67 H67        22.1023  -30.4059  -46.1604 H         1 UNK         0.0849 
     68 H68        20.6129  -30.8349  -45.4127 H         1 UNK         0.0849 
     69 H69        17.9649  -29.7797  -47.8745 H         1 UNK         0.0865 
     70 H70        18.8118  -31.2477  -47.4779 H         1 UNK         0.0865 
     71 H71        18.2954  -32.2827  -45.4549 H         1 UNK         0.1346 
     72 H72        16.2675  -30.1925  -42.3022 H         1 UNK         0.1412 
     73 H73        17.4944  -28.1033  -45.8406 H         1 UNK         0.1426 
     74 H74        15.4022  -27.9875  -42.7263 H         1 UNK         0.0716 
     75 H75        15.4993  -27.3653  -44.3429 H         1 UNK         0.0716 
     76 H76        16.5672  -27.3514  -40.8780 H         1 UNK         0.0695 
     77 H77        16.4283  -25.6237  -40.8832 H         1 UNK         0.0695 
     78 H78        18.2095  -26.5671  -39.3680 H         1 UNK         0.0983 
     79 H79        20.1229  -27.1422  -41.4783 H         1 UNK         0.3095 
     80 H80        21.2235  -29.3837  -40.6578 H         1 UNK         0.0454 
     81 H81        19.1961  -31.5148  -41.3866 H         1 UNK         0.0851 
     82 H82        19.7359  -31.2737  -39.7305 H         1 UNK         0.0851 
     83 H83        20.8885  -31.7329  -40.9486 H         1 UNK         0.0851 
     84 H84        19.5890  -28.8785  -42.9455 H         1 UNK         0.2976 
     85 H85        20.7366  -25.4533  -41.4178 H         1 UNK         0.3116 
     86 H86        20.8757  -23.0721  -39.8261 H         1 UNK         0.0646 
     87 H87        20.1779  -22.6659  -42.7906 H         1 UNK         0.0847 
     88 H88        20.7720  -21.4091  -41.7176 H         1 UNK         0.0847 
     89 H89        19.2147  -22.1479  -41.4113 H         1 UNK         0.0847 
     90 H90        21.9619  -24.4830  -42.9476 H         1 UNK         0.3040 
     91 H91        24.5560  -23.1637  -42.7532 H         1 UNK         0.1015 
     92 H92        23.4224  -25.1049  -44.8415 H         1 UNK         0.0786 
     93 H93        24.8882  -24.1507  -45.0055 H         1 UNK         0.0786 
     94 H94        23.3315  -23.3438  -44.9230 H         1 UNK         0.0786 
     95 H95        23.2735  -26.3918  -42.0811 H         1 UNK         0.3172 
     96 H96        25.8491  -27.2823  -41.0411 H         1 UNK         0.0595 
     97 H97        24.5185  -28.7711  -43.3805 H         1 UNK         0.0839 
     98 H98        25.9239  -29.3337  -42.4858 H         1 UNK         0.0839 
     99 H99        26.0378  -27.8947  -43.4707 H         1 UNK         0.0839 
    100 H100       25.2877  -29.9052  -40.6566 H         1 UNK         0.2998 
    101 H101       22.6880  -30.1942  -39.2902 H         1 UNK         0.0822 
    102 H102       24.1947  -29.2086  -37.5624 H         1 UNK         0.0787 
    103 H103       23.7789  -30.8694  -37.1785 H         1 UNK         0.0787 
    104 H104       25.3661  -30.4967  -37.8411 H         1 UNK         0.0787 
    105 H105       23.5211  -31.2821  -41.7353 H         1 UNK         0.3055 
    106 H106       24.3385  -34.1086  -41.1042 H         1 UNK         0.1106 
    107 H107       25.2668  -34.1067  -43.4205 H         1 UNK         0.0828 
    108 H108       24.8074  -32.4196  -43.6195 H         1 UNK         0.0828 
    109 H109       26.0238  -32.8729  -42.4282 H         1 UNK         0.0828 
    110 H110       22.0367  -32.0710  -42.8773 H         1 UNK         0.2931 
    111 H111       20.1736  -32.4249  -43.9315 H         1 UNK         0.0412 
    112 H112       22.8039  -33.1112  -45.2387 H         1 UNK         0.3472 
    113 H113       22.3332  -34.0422  -46.6370 H         1 UNK         0.3472 
    114 H114       19.5152  -33.8212  -41.9033 H         1 UNK         0.0970 
    115 H115       19.8868  -35.2365  -42.8327 H         1 UNK         0.0970 
    116 H116       16.0149  -32.8667  -42.9344 H         1 UNK         0.0612 
    117 H117       17.3756  -32.5388  -41.9158 H         1 UNK         0.0612 
@<TRIPOS>BOND
     1    1    2 1    
     2    1   62 1    
     3    1   63 1    
     4    1   64 1    
     5    2    3 2    
     6    2    4 am   BACKBONE|DICT|INTERRES
     7    4    5 1    
     8    4   65 1    
     9    5    6 1    
    10    5   25 1    
    11    5   66 1    
    12    6    7 1    
    13    6   67 1    
    14    6   68 1    
    15    7    8 1    
    16    8    9 1    
    17    8   69 1    
    18    8   70 1    
    19    9   10 ar   
    20    9   14 ar   
    21   10   11 ar   
    22   10   71 1    
    23   11   12 ar   
    24   11   61 1    
    25   12   13 ar   
    26   12   72 1    
    27   13   14 ar   
    28   13   15 1    
    29   14   73 1    
    30   15   16 1    
    31   15   74 1    
    32   15   75 1    
    33   16   17 1    
    34   17   18 1    
    35   17   76 1    
    36   17   77 1    
    37   18   19 1    
    38   18   27 1    
    39   18   78 1    
    40   19   20 am   BACKBONE|DICT|INTERRES
    41   19   79 1    
    42   20   21 2    
    43   20   22 1    
    44   22   23 1    
    45   22   24 1    
    46   22   80 1    
    47   23   81 1    
    48   23   82 1    
    49   23   83 1    
    50   24   25 am   BACKBONE|DICT|INTERRES
    51   24   84 1    
    52   25   26 2    
    53   27   28 2    
    54   27   29 am   BACKBONE|DICT|INTERRES
    55   29   30 1    
    56   29   85 1    
    57   30   31 1    
    58   30   32 1    
    59   30   86 1    
    60   31   87 1    
    61   31   88 1    
    62   31   89 1    
    63   32   33 2    
    64   32   34 am   BACKBONE|DICT|INTERRES
    65   34   35 1    
    66   34   90 1    
    67   35   36 1    
    68   35   37 1    
    69   35   91 1    
    70   36   92 1    
    71   36   93 1    
    72   36   94 1    
    73   37   38 2    
    74   37   39 am   BACKBONE|DICT|INTERRES
    75   39   40 1    
    76   39   95 1    
    77   40   41 1    
    78   40   42 1    
    79   40   96 1    
    80   41   97 1    
    81   41   98 1    
    82   41   99 1    
    83   42   43 2    
    84   42   44 am   BACKBONE|DICT|INTERRES
    85   44   45 1    
    86   44  100 1    
    87   45   46 1    
    88   45   47 1    
    89   45  101 1    
    90   46  102 1    
    91   46  103 1    
    92   46  104 1    
    93   47   48 2    
    94   47   49 am   BACKBONE|DICT|INTERRES
    95   49   50 1    
    96   49  105 1    
    97   50   51 1    
    98   50   52 1    
    99   50  106 1    
   100   51  107 1    
   101   51  108 1    
   102   51  109 1    
   103   52   53 2    
   104   52   54 am   BACKBONE|DICT|INTERRES
   105   54   55 1    
   106   54  110 1    
   107   55   56 1    
   108   55   59 1    
   109   55  111 1    
   110   56   57 am   BACKBONE|DICT|INTERRES
   111   56   58 2    
   112   57  112 1    
   113   57  113 1    
   114   59   60 1    
   115   59  114 1    
   116   59  115 1    
   117   60   61 1    
   118   61  116 1    
   119   61  117 1    
@<TRIPOS>SUBSTRUCTURE
     1 UNK         1 GROUP             0       ****    0 ROOT    
