@<TRIPOS>MOLECULE
3R8
117   119    1
SMALL
USER_CHARGES


@<TRIPOS>ATOM
      1 CA         17.5811  -25.3194  -39.6391 C.3       0 UNK        -0.2013 
      2 C          17.2667  -25.2023  -41.1233 C.2       0 UNK         0.4866 
      3 O          16.8393  -24.1403  -41.5776 O.2       0 UNK        -0.5176 
      4 N          17.4696  -26.2881  -41.8798 N.am      1 UNK        -0.4884 
      5 CA         17.3156  -26.3322  -43.3379 C.3       1 UNK         0.0853 
      6 C6         17.1068  -27.7898  -43.8219 C.3       10 UNK        -0.0849 
      7 S7         16.2848  -27.8851  -45.4509 S.3       10 UNK        -0.2776 
      8 C8         15.8701  -29.6574  -45.5557 C.3       10 UNK         0.0316 
      9 C9         17.0801  -30.5500  -45.3146 C.ar      10 UNK        -0.0863 
     10 C10        17.0854  -31.4495  -44.2457 C.ar      10 UNK        -0.1009 
     11 C11        18.2018  -32.2528  -43.9972 C.ar      10 UNK        -0.0712 
     12 C12        19.3237  -32.1437  -44.8270 C.ar      10 UNK        -0.0894 
     13 C13        19.3269  -31.2604  -45.9123 C.ar      10 UNK        -0.0745 
     14 C14        18.1940  -30.4759  -46.1558 C.ar      10 UNK        -0.0972 
     15 C15        20.5335  -31.2080  -46.8467 C.3       10 UNK         0.0209 
     16 S16        21.0182  -29.5191  -47.3382 S.3       10 UNK        -0.2568 
     17 C17        21.8291  -28.9224  -45.8207 C.3       10 UNK        -0.0983 
     18 CA         22.0733  -27.3933  -45.8537 C.3       3 UNK         0.0876 
     19 N          20.8161  -26.6459  -45.9767 N.am      3 UNK        -0.4424 
     20 C          20.7144  -25.3544  -46.3175 C.2       2 UNK         0.4918 
     21 O          21.6723  -24.6633  -46.6648 O.2       2 UNK        -0.4875 
     22 CA         19.3174  -24.7073  -46.2314 C.3       2 UNK         0.0481 
     23 CB         18.7039  -24.5841  -47.6352 C.3       2 UNK        -0.1831 
     24 N          18.3573  -25.3869  -45.3502 N.am      2 UNK        -0.4498 
     25 C          18.5109  -25.6484  -44.0437 C.2       1 UNK         0.5027 
     26 O          19.5484  -25.4065  -43.4204 O.2       1 UNK        -0.4969 
     27 C          22.9301  -26.9460  -44.6436 C.2       3 UNK         0.5005 
     28 O          24.1182  -27.2706  -44.6151 O.2       3 UNK        -0.5279 
     29 N          22.3292  -26.2062  -43.6944 N.am      4 UNK        -0.4463 
     30 CA         22.8814  -25.6848  -42.4379 C.3       4 UNK         0.0283 
     31 CB         24.1777  -24.8788  -42.6643 C.3       4 UNK        -0.1875 
     32 C          23.0686  -26.7740  -41.3707 C.2       4 UNK         0.4949 
     33 O          23.1128  -27.9645  -41.6839 O.2       4 UNK        -0.5039 
     34 N          23.1885  -26.3364  -40.1096 N.am      5 UNK        -0.4663 
     35 CA         23.2521  -27.1786  -38.9049 C.3       5 UNK         0.0242 
     36 CB         23.2835  -26.2698  -37.6650 C.3       5 UNK        -0.1982 
     37 C          24.4152  -28.1892  -38.8587 C.2       5 UNK         0.5017 
     38 O          24.3487  -29.1514  -38.0935 O.2       5 UNK        -0.5012 
     39 N          25.4513  -27.9628  -39.6765 N.am      6 UNK        -0.4439 
     40 CA         26.5729  -28.8791  -39.8832 C.3       6 UNK         0.0297 
     41 CB         27.6987  -28.1326  -40.6175 C.3       6 UNK        -0.2006 
     42 C          26.1900  -30.1594  -40.6525 C.2       6 UNK         0.4892 
     43 O          26.9016  -31.1564  -40.5223 O.2       6 UNK        -0.5089 
     44 N          25.1058  -30.1137  -41.4406 N.am      7 UNK        -0.4243 
     45 CA         24.6303  -31.2227  -42.2705 C.3       7 UNK         0.0196 
     46 CB         24.7629  -30.8371  -43.7518 C.3       7 UNK        -0.2007 
     47 C          23.1822  -31.6108  -41.9437 C.2       7 UNK         0.5020 
     48 O          22.8795  -32.8032  -41.9173 O.2       7 UNK        -0.5147 
     49 N          22.3120  -30.6211  -41.7095 N.am      8 UNK        -0.4734 
     50 CA         20.9079  -30.8175  -41.3585 C.3       8 UNK         0.0238 
     51 CB         20.0942  -29.6081  -41.8577 C.3       8 UNK        -0.1912 
     52 C          20.7715  -30.9739  -39.8300 C.2       8 UNK         0.5038 
     53 O          21.0215  -29.9951  -39.1280 O.2       8 UNK        -0.5046 
     54 N          20.3792  -32.1274  -39.2712 N.am      9 UNK        -0.4200 
     55 CA         20.1232  -33.4426  -39.8870 C.3       9 UNK         0.0839 
     56 C          20.7953  -34.6018  -39.0936 C.2       9 UNK         0.5513 
     57 N          21.7002  -34.3347  -38.1581 N.am      9 UNK        -0.7519 
     58 O          20.5046  -35.7704  -39.3362 O.2       9 UNK        -0.4960 
     59 C59        18.6068  -33.7012  -40.1238 C.3       10 UNK        -0.0876 
     60 S60        17.8374  -32.4901  -41.2472 S.3       10 UNK        -0.2414 
     61 C61        18.1836  -33.2651  -42.8587 C.3       10 UNK         0.0169 
     62 H62        16.6876  -25.1175  -39.0488 H         1 UNK         0.0903 
     63 H63        17.9448  -26.3125  -39.3753 H         1 UNK         0.0903 
     64 H64        18.3452  -24.5943  -39.3602 H         1 UNK         0.0903 
     65 H65        17.8508  -27.1200  -41.4535 H         1 UNK         0.3096 
     66 H66        16.4203  -25.7563  -43.5854 H         1 UNK         0.1121 
     67 H67        18.0519  -28.3356  -43.8539 H         1 UNK         0.0849 
     68 H68        16.4740  -28.3292  -43.1146 H         1 UNK         0.0849 
     69 H69        15.0759  -29.8756  -44.8399 H         1 UNK         0.0865 
     70 H70        15.4592  -29.8696  -46.5436 H         1 UNK         0.0865 
     71 H71        16.2207  -31.5271  -43.6006 H         1 UNK         0.1346 
     72 H72        20.1884  -32.7667  -44.6426 H         1 UNK         0.1412 
     73 H73        18.1800  -29.7947  -46.9957 H         1 UNK         0.1426 
     74 H74        20.2911  -31.7727  -47.7476 H         1 UNK         0.0716 
     75 H75        21.3959  -31.7024  -46.3965 H         1 UNK         0.0716 
     76 H76        21.2248  -29.1991  -44.9563 H         1 UNK         0.0695 
     77 H77        22.7726  -29.4615  -45.7271 H         1 UNK         0.0695 
     78 H78        22.6705  -27.1719  -46.7413 H         1 UNK         0.0983 
     79 H79        19.9734  -27.1489  -45.7439 H         1 UNK         0.3095 
     80 H80        19.4581  -23.7008  -45.8326 H         1 UNK         0.0454 
     81 H81        18.5026  -25.5622  -48.0742 H         1 UNK         0.0851 
     82 H82        17.7682  -24.0253  -47.6139 H         1 UNK         0.0851 
     83 H83        19.3768  -24.0559  -48.3123 H         1 UNK         0.0851 
     84 H84        17.4909  -25.6796  -45.7829 H         1 UNK         0.2976 
     85 H85        21.3371  -26.0156  -43.8091 H         1 UNK         0.3116 
     86 H86        22.1232  -24.9971  -42.0598 H         1 UNK         0.0646 
     87 H87        24.4638  -24.3328  -41.7649 H         1 UNK         0.0847 
     88 H88        24.0536  -24.1439  -43.4597 H         1 UNK         0.0847 
     89 H89        25.0188  -25.5202  -42.9291 H         1 UNK         0.0847 
     90 H90        23.1576  -25.3396  -39.9474 H         1 UNK         0.3040 
     91 H91        22.3309  -27.7627  -38.8741 H         1 UNK         0.1015 
     92 H92        22.4035  -25.6279  -37.6194 H         1 UNK         0.0786 
     93 H93        24.1683  -25.6321  -37.6547 H         1 UNK         0.0786 
     94 H94        23.2966  -26.8600  -36.7473 H         1 UNK         0.0786 
     95 H95        25.4150  -27.1407  -40.2613 H         1 UNK         0.3172 
     96 H96        26.9474  -29.1834  -38.9035 H         1 UNK         0.0595 
     97 H97        28.0352  -27.2632  -40.0523 H         1 UNK         0.0839 
     98 H98        27.3817  -27.7921  -41.6043 H         1 UNK         0.0839 
     99 H99        28.5662  -28.7787  -40.7602 H         1 UNK         0.0839 
    100 H100       24.5565  -29.2597  -41.4707 H         1 UNK         0.2998 
    101 H101       25.2385  -32.1139  -42.1017 H         1 UNK         0.0822 
    102 H102       25.8067  -30.6887  -44.0288 H         1 UNK         0.0787 
    103 H103       24.3595  -31.6148  -44.4019 H         1 UNK         0.0787 
    104 H104       24.2278  -29.9132  -43.9686 H         1 UNK         0.0787 
    105 H105       22.6329  -29.6538  -41.7214 H         1 UNK         0.3055 
    106 H106       20.5262  -31.6851  -41.8908 H         1 UNK         0.1106 
    107 H107       20.4532  -28.6685  -41.4364 H         1 UNK         0.0828 
    108 H108       20.1352  -29.5279  -42.9427 H         1 UNK         0.0828 
    109 H109       19.0432  -29.7077  -41.5853 H         1 UNK         0.0828 
    110 H110       20.2845  -32.1345  -38.2664 H         1 UNK         0.2931 
    111 H111       20.6229  -33.5018  -40.8502 H         1 UNK         0.0412 
    112 H112       22.0024  -33.3902  -37.9799 H         1 UNK         0.3472 
    113 H113       22.1270  -35.0996  -37.6586 H         1 UNK         0.3472 
    114 H114       18.4367  -34.6995  -40.5318 H         1 UNK         0.0970 
    115 H115       18.0697  -33.6728  -39.1743 H         1 UNK         0.0970 
    116 H116       19.1390  -33.7895  -42.8089 H         1 UNK         0.0612 
    117 H117       17.4250  -34.0223  -43.0607 H         1 UNK         0.0612 
@<TRIPOS>BOND
     1    1    2 1    
     2    1   62 1    
     3    1   63 1    
     4    1   64 1    
     5    2    3 2    
     6    2    4 am   BACKBONE|DICT|INTERRES
     7    4    5 1    
     8    4   65 1    
     9    5    6 1    
    10    5   25 1    
    11    5   66 1    
    12    6    7 1    
    13    6   67 1    
    14    6   68 1    
    15    7    8 1    
    16    8    9 1    
    17    8   69 1    
    18    8   70 1    
    19    9   10 ar   
    20    9   14 ar   
    21   10   11 ar   
    22   10   71 1    
    23   11   12 ar   
    24   11   61 1    
    25   12   13 ar   
    26   12   72 1    
    27   13   14 ar   
    28   13   15 1    
    29   14   73 1    
    30   15   16 1    
    31   15   74 1    
    32   15   75 1    
    33   16   17 1    
    34   17   18 1    
    35   17   76 1    
    36   17   77 1    
    37   18   19 1    
    38   18   27 1    
    39   18   78 1    
    40   19   20 am   BACKBONE|DICT|INTERRES
    41   19   79 1    
    42   20   21 2    
    43   20   22 1    
    44   22   23 1    
    45   22   24 1    
    46   22   80 1    
    47   23   81 1    
    48   23   82 1    
    49   23   83 1    
    50   24   25 am   BACKBONE|DICT|INTERRES
    51   24   84 1    
    52   25   26 2    
    53   27   28 2    
    54   27   29 am   BACKBONE|DICT|INTERRES
    55   29   30 1    
    56   29   85 1    
    57   30   31 1    
    58   30   32 1    
    59   30   86 1    
    60   31   87 1    
    61   31   88 1    
    62   31   89 1    
    63   32   33 2    
    64   32   34 am   BACKBONE|DICT|INTERRES
    65   34   35 1    
    66   34   90 1    
    67   35   36 1    
    68   35   37 1    
    69   35   91 1    
    70   36   92 1    
    71   36   93 1    
    72   36   94 1    
    73   37   38 2    
    74   37   39 am   BACKBONE|DICT|INTERRES
    75   39   40 1    
    76   39   95 1    
    77   40   41 1    
    78   40   42 1    
    79   40   96 1    
    80   41   97 1    
    81   41   98 1    
    82   41   99 1    
    83   42   43 2    
    84   42   44 am   BACKBONE|DICT|INTERRES
    85   44   45 1    
    86   44  100 1    
    87   45   46 1    
    88   45   47 1    
    89   45  101 1    
    90   46  102 1    
    91   46  103 1    
    92   46  104 1    
    93   47   48 2    
    94   47   49 am   BACKBONE|DICT|INTERRES
    95   49   50 1    
    96   49  105 1    
    97   50   51 1    
    98   50   52 1    
    99   50  106 1    
   100   51  107 1    
   101   51  108 1    
   102   51  109 1    
   103   52   53 2    
   104   52   54 am   BACKBONE|DICT|INTERRES
   105   54   55 1    
   106   54  110 1    
   107   55   56 1    
   108   55   59 1    
   109   55  111 1    
   110   56   57 am   BACKBONE|DICT|INTERRES
   111   56   58 2    
   112   57  112 1    
   113   57  113 1    
   114   59   60 1    
   115   59  114 1    
   116   59  115 1    
   117   60   61 1    
   118   61  116 1    
   119   61  117 1    
@<TRIPOS>SUBSTRUCTURE
     1 UNK         1 GROUP             0       ****    0 ROOT    
