@<TRIPOS>MOLECULE
3R8
117   119    1
SMALL
USER_CHARGES


@<TRIPOS>ATOM
      1 CA         18.8731  -22.0850  -48.2498 C.3       0 UNK        -0.2013 
      2 C          19.5740  -23.0994  -47.3587 C.2       0 UNK         0.4866 
      3 O          20.4954  -22.7382  -46.6260 O.2       0 UNK        -0.5176 
      4 N          19.1505  -24.3685  -47.4178 N.am      1 UNK        -0.4884 
      5 CA         19.6658  -25.4588  -46.5856 C.3       1 UNK         0.0853 
      6 C6         19.3523  -26.8502  -47.2131 C.3       10 UNK        -0.0849 
      7 S7         20.7031  -28.0694  -47.0426 S.3       10 UNK        -0.2776 
      8 C8         20.6318  -28.5694  -45.2932 C.3       10 UNK         0.0316 
      9 C9         19.5247  -29.5620  -44.9704 C.ar      10 UNK        -0.0863 
     10 C10        19.8258  -30.9127  -44.7749 C.ar      10 UNK        -0.1009 
     11 C11        18.8458  -31.7991  -44.3188 C.ar      10 UNK        -0.0712 
     12 C12        17.5486  -31.3351  -44.0838 C.ar      10 UNK        -0.0894 
     13 C13        17.2327  -29.9887  -44.2820 C.ar      10 UNK        -0.0745 
     14 C14        18.2209  -29.1148  -44.7440 C.ar      10 UNK        -0.0972 
     15 C15        15.8398  -29.4710  -43.9446 C.3       10 UNK         0.0209 
     16 S16        15.8743  -28.0035  -42.8586 S.3       10 UNK        -0.2568 
     17 C17        16.7708  -28.6151  -41.3856 C.3       10 UNK        -0.0983 
     18 CA         18.2924  -28.2765  -41.3667 C.3       3 UNK         0.0876 
     19 N          18.5399  -26.8734  -41.7451 N.am      3 UNK        -0.4424 
     20 C          19.6878  -26.3225  -42.1586 C.2       2 UNK         0.4918 
     21 O          20.7898  -26.8747  -42.0959 O.2       2 UNK        -0.4875 
     22 CA         19.5961  -24.9141  -42.7634 C.3       2 UNK         0.0481 
     23 CB         20.5436  -23.9399  -42.0469 C.3       2 UNK        -0.1831 
     24 N          19.9431  -24.9707  -44.1845 N.am      2 UNK        -0.4498 
     25 C          19.0909  -25.3140  -45.1596 C.2       1 UNK         0.5027 
     26 O          17.8876  -25.5061  -44.9753 O.2       1 UNK        -0.4969 
     27 C          18.9655  -28.7390  -40.0480 C.2       3 UNK         0.5005 
     28 O          18.3636  -29.5038  -39.2911 O.2       3 UNK        -0.5279 
     29 N          20.1957  -28.2822  -39.7975 N.am      4 UNK        -0.4463 
     30 CA         21.0719  -28.6458  -38.6837 C.3       4 UNK         0.0283 
     31 CB         20.4645  -28.2670  -37.3160 C.3       4 UNK        -0.1875 
     32 C          22.4338  -27.9642  -38.8542 C.2       4 UNK         0.4949 
     33 O          23.4651  -28.6057  -38.6561 O.2       4 UNK        -0.5039 
     34 N          22.4130  -26.6674  -39.1960 N.am      5 UNK        -0.4663 
     35 CA         23.6121  -25.8333  -39.2970 C.3       5 UNK         0.0242 
     36 CB         23.2270  -24.3545  -39.1306 C.3       5 UNK        -0.1982 
     37 C          24.4019  -26.0466  -40.5971 C.2       5 UNK         0.5017 
     38 O          25.6309  -25.9753  -40.5591 O.2       5 UNK        -0.5012 
     39 N          23.7041  -26.2881  -41.7177 N.am      6 UNK        -0.4439 
     40 CA         24.3363  -26.5011  -43.0243 C.3       6 UNK         0.0297 
     41 CB         23.3816  -26.0764  -44.1494 C.3       6 UNK        -0.2006 
     42 C          24.8022  -27.9525  -43.2170 C.2       6 UNK         0.4892 
     43 O          25.8214  -28.1714  -43.8728 O.2       6 UNK        -0.5089 
     44 N          24.0701  -28.9094  -42.6349 N.am      7 UNK        -0.4243 
     45 CA         24.3964  -30.3310  -42.6185 C.3       7 UNK         0.0196 
     46 CB         24.0548  -30.9824  -43.9719 C.3       7 UNK        -0.2007 
     47 C          23.6123  -30.9950  -41.4841 C.2       7 UNK         0.5020 
     48 O          22.4955  -30.5683  -41.1862 O.2       7 UNK        -0.5147 
     49 N          24.1987  -32.0473  -40.9013 N.am      8 UNK        -0.4734 
     50 CA         23.5982  -32.8501  -39.8283 C.3       8 UNK         0.0238 
     51 CB         24.7261  -33.4368  -38.9614 C.3       8 UNK        -0.1912 
     52 C          22.6708  -33.9695  -40.3435 C.2       8 UNK         0.5038 
     53 O          22.0496  -34.6506  -39.5258 O.2       8 UNK        -0.5046 
     54 N          22.6006  -34.1413  -41.6709 N.am      9 UNK        -0.4200 
     55 CA         21.8191  -35.1575  -42.3968 C.3       9 UNK         0.0839 
     56 C          22.3920  -36.5985  -42.2351 C.2       9 UNK         0.5513 
     57 N          21.6919  -37.6168  -42.7184 N.am      9 UNK        -0.7519 
     58 O          23.4871  -36.8089  -41.7163 O.2       9 UNK        -0.4960 
     59 C59        20.2823  -35.0745  -42.1365 C.3       10 UNK        -0.0876 
     60 S60        19.6135  -33.3803  -42.2335 S.3       10 UNK        -0.2414 
     61 C61        19.2090  -33.2383  -43.9986 C.3       10 UNK         0.0169 
     62 H62        18.0877  -22.5428  -48.8509 H         1 UNK         0.0903 
     63 H63        18.4217  -21.3011  -47.6423 H         1 UNK         0.0903 
     64 H64        19.5906  -21.6212  -48.9263 H         1 UNK         0.0903 
     65 H65        18.3660  -24.6013  -48.0109 H         1 UNK         0.3096 
     66 H66        20.7516  -25.3441  -46.5388 H         1 UNK         0.1121 
     67 H67        19.2191  -26.7382  -48.2905 H         1 UNK         0.0849 
     68 H68        18.4066  -27.2711  -46.8723 H         1 UNK         0.0849 
     69 H69        21.5994  -28.9951  -45.0232 H         1 UNK         0.0865 
     70 H70        20.5176  -27.6943  -44.6605 H         1 UNK         0.0865 
     71 H71        20.8351  -31.2678  -44.9251 H         1 UNK         0.1346 
     72 H72        16.7989  -32.0169  -43.7058 H         1 UNK         0.1412 
     73 H73        17.9821  -28.0683  -44.8519 H         1 UNK         0.1426 
     74 H74        15.2407  -30.2465  -43.4649 H         1 UNK         0.0716 
     75 H75        15.3269  -29.2114  -44.8715 H         1 UNK         0.0716 
     76 H76        16.6191  -29.6936  -41.3081 H         1 UNK         0.0695 
     77 H77        16.2809  -28.1793  -40.5129 H         1 UNK         0.0695 
     78 H78        18.7697  -28.8898  -42.1312 H         1 UNK         0.0983 
     79 H79        17.6986  -26.3231  -41.8435 H         1 UNK         0.3095 
     80 H80        18.5777  -24.5357  -42.6502 H         1 UNK         0.0454 
     81 H81        21.5879  -24.2351  -42.1477 H         1 UNK         0.0851 
     82 H82        20.3152  -23.8874  -40.9817 H         1 UNK         0.0851 
     83 H83        20.4452  -22.9304  -42.4465 H         1 UNK         0.0851 
     84 H84        20.9080  -24.7904  -44.4190 H         1 UNK         0.2976 
     85 H85        20.6251  -27.7328  -40.5397 H         1 UNK         0.3116 
     86 H86        21.2309  -29.7256  -38.7174 H         1 UNK         0.0646 
     87 H87        20.1778  -27.2158  -37.2771 H         1 UNK         0.0847 
     88 H88        21.1793  -28.4403  -36.5103 H         1 UNK         0.0847 
     89 H89        19.5821  -28.8626  -37.0846 H         1 UNK         0.0847 
     90 H90        21.5222  -26.2037  -39.2972 H         1 UNK         0.3040 
     91 H91        24.2788  -26.0940  -38.4711 H         1 UNK         0.1015 
     92 H92        22.5565  -24.0154  -39.9188 H         1 UNK         0.0786 
     93 H93        24.1118  -23.7170  -39.1621 H         1 UNK         0.0786 
     94 H94        22.7375  -24.1772  -38.1728 H         1 UNK         0.0786 
     95 H95        22.6942  -26.3718  -41.6727 H         1 UNK         0.3172 
     96 H96        25.2205  -25.8638  -43.0971 H         1 UNK         0.0595 
     97 H97        22.4614  -26.6542  -44.1309 H         1 UNK         0.0839 
     98 H98        23.8401  -26.2271  -45.1279 H         1 UNK         0.0839 
     99 H99        23.1258  -25.0201  -44.0719 H         1 UNK         0.0839 
    100 H100       23.2542  -28.6620  -42.0890 H         1 UNK         0.2998 
    101 H101       25.4647  -30.4411  -42.4186 H         1 UNK         0.0822 
    102 H102       24.6105  -30.5245  -44.7903 H         1 UNK         0.0787 
    103 H103       24.3022  -32.0445  -43.9711 H         1 UNK         0.0787 
    104 H104       22.9933  -30.8936  -44.1986 H         1 UNK         0.0787 
    105 H105       25.1169  -32.3313  -41.2144 H         1 UNK         0.3055 
    106 H106       22.9882  -32.1983  -39.1979 H         1 UNK         0.1106 
    107 H107       24.3206  -33.9996  -38.1193 H         1 UNK         0.0828 
    108 H108       25.3614  -34.1167  -39.5304 H         1 UNK         0.0828 
    109 H109       25.3579  -32.6511  -38.5467 H         1 UNK         0.0828 
    110 H110       23.1691  -33.5392  -42.2451 H         1 UNK         0.2931 
    111 H111       21.9781  -34.9145  -43.4479 H         1 UNK         0.0412 
    112 H112       22.0664  -38.5492  -42.6309 H         1 UNK         0.3472 
    113 H113       20.8058  -37.4775  -43.1776 H         1 UNK         0.3472 
    114 H114       20.0473  -35.4662  -41.1454 H         1 UNK         0.0970 
    115 H115       19.7333  -35.7000  -42.8415 H         1 UNK         0.0970 
    116 H116       18.3805  -33.9049  -44.2426 H         1 UNK         0.0612 
    117 H117       20.0619  -33.5580  -44.5992 H         1 UNK         0.0612 
@<TRIPOS>BOND
     1    1    2 1    
     2    1   62 1    
     3    1   63 1    
     4    1   64 1    
     5    2    3 2    
     6    2    4 am   BACKBONE|DICT|INTERRES
     7    4    5 1    
     8    4   65 1    
     9    5    6 1    
    10    5   25 1    
    11    5   66 1    
    12    6    7 1    
    13    6   67 1    
    14    6   68 1    
    15    7    8 1    
    16    8    9 1    
    17    8   69 1    
    18    8   70 1    
    19    9   10 ar   
    20    9   14 ar   
    21   10   11 ar   
    22   10   71 1    
    23   11   12 ar   
    24   11   61 1    
    25   12   13 ar   
    26   12   72 1    
    27   13   14 ar   
    28   13   15 1    
    29   14   73 1    
    30   15   16 1    
    31   15   74 1    
    32   15   75 1    
    33   16   17 1    
    34   17   18 1    
    35   17   76 1    
    36   17   77 1    
    37   18   19 1    
    38   18   27 1    
    39   18   78 1    
    40   19   20 am   BACKBONE|DICT|INTERRES
    41   19   79 1    
    42   20   21 2    
    43   20   22 1    
    44   22   23 1    
    45   22   24 1    
    46   22   80 1    
    47   23   81 1    
    48   23   82 1    
    49   23   83 1    
    50   24   25 am   BACKBONE|DICT|INTERRES
    51   24   84 1    
    52   25   26 2    
    53   27   28 2    
    54   27   29 am   BACKBONE|DICT|INTERRES
    55   29   30 1    
    56   29   85 1    
    57   30   31 1    
    58   30   32 1    
    59   30   86 1    
    60   31   87 1    
    61   31   88 1    
    62   31   89 1    
    63   32   33 2    
    64   32   34 am   BACKBONE|DICT|INTERRES
    65   34   35 1    
    66   34   90 1    
    67   35   36 1    
    68   35   37 1    
    69   35   91 1    
    70   36   92 1    
    71   36   93 1    
    72   36   94 1    
    73   37   38 2    
    74   37   39 am   BACKBONE|DICT|INTERRES
    75   39   40 1    
    76   39   95 1    
    77   40   41 1    
    78   40   42 1    
    79   40   96 1    
    80   41   97 1    
    81   41   98 1    
    82   41   99 1    
    83   42   43 2    
    84   42   44 am   BACKBONE|DICT|INTERRES
    85   44   45 1    
    86   44  100 1    
    87   45   46 1    
    88   45   47 1    
    89   45  101 1    
    90   46  102 1    
    91   46  103 1    
    92   46  104 1    
    93   47   48 2    
    94   47   49 am   BACKBONE|DICT|INTERRES
    95   49   50 1    
    96   49  105 1    
    97   50   51 1    
    98   50   52 1    
    99   50  106 1    
   100   51  107 1    
   101   51  108 1    
   102   51  109 1    
   103   52   53 2    
   104   52   54 am   BACKBONE|DICT|INTERRES
   105   54   55 1    
   106   54  110 1    
   107   55   56 1    
   108   55   59 1    
   109   55  111 1    
   110   56   57 am   BACKBONE|DICT|INTERRES
   111   56   58 2    
   112   57  112 1    
   113   57  113 1    
   114   59   60 1    
   115   59  114 1    
   116   59  115 1    
   117   60   61 1    
   118   61  116 1    
   119   61  117 1    
@<TRIPOS>SUBSTRUCTURE
     1 UNK         1 GROUP             0       ****    0 ROOT    
