@<TRIPOS>MOLECULE
3R8
117   119    1
SMALL
USER_CHARGES


@<TRIPOS>ATOM
      1 CA         16.7071  -21.8134  -46.6706 C.3       0 UNK        -0.2013 
      2 C          17.5284  -23.0565  -46.9779 C.2       0 UNK         0.4866 
      3 O          18.5388  -22.9656  -47.6752 O.2       0 UNK        -0.5176 
      4 N          17.1060  -24.2181  -46.4593 N.am      1 UNK        -0.4884 
      5 CA         17.7725  -25.5145  -46.6583 C.3       1 UNK         0.0853 
      6 C6         16.7724  -26.6898  -46.4829 C.3       10 UNK        -0.0849 
      7 S7         17.1435  -28.0786  -47.6060 S.3       10 UNK        -0.2776 
      8 C8         16.1840  -29.4313  -46.8544 C.3       10 UNK         0.0316 
      9 C9         16.7877  -29.9120  -45.5415 C.ar      10 UNK        -0.0863 
     10 C10        18.0088  -30.5929  -45.5377 C.ar      10 UNK        -0.1009 
     11 C11        18.5592  -31.0640  -44.3418 C.ar      10 UNK        -0.0712 
     12 C12        17.8675  -30.8590  -43.1436 C.ar      10 UNK        -0.0894 
     13 C13        16.6440  -30.1809  -43.1323 C.ar      10 UNK        -0.0745 
     14 C14        16.1125  -29.7054  -44.3350 C.ar      10 UNK        -0.0972 
     15 C15        15.8695  -29.9931  -41.8323 C.3       10 UNK         0.0209 
     16 S16        16.8631  -29.2464  -40.4995 S.3       10 UNK        -0.2568 
     17 C17        17.3020  -27.6228  -41.2091 C.3       10 UNK        -0.0983 
     18 CA         18.8150  -27.5072  -41.5212 C.3       3 UNK         0.0876 
     19 N          19.0914  -26.3623  -42.3906 N.am      3 UNK        -0.4424 
     20 C          20.2908  -26.0240  -42.8857 C.2       2 UNK         0.4918 
     21 O          21.3302  -26.6462  -42.6569 O.2       2 UNK        -0.4875 
     22 CA         20.3069  -24.7807  -43.7972 C.3       2 UNK         0.0481 
     23 CB         21.6699  -24.5448  -44.4833 C.3       2 UNK        -0.1831 
     24 N          19.2168  -24.8018  -44.7829 N.am      2 UNK        -0.4498 
     25 C          19.0315  -25.6915  -45.7743 C.2       1 UNK         0.5027 
     26 O          19.8033  -26.6221  -46.0075 O.2       1 UNK        -0.4969 
     27 C          19.6612  -27.4494  -40.2309 C.2       3 UNK         0.5005 
     28 O          19.5763  -26.4650  -39.4928 O.2       3 UNK        -0.5279 
     29 N          20.4667  -28.4990  -40.0086 N.am      4 UNK        -0.4463 
     30 CA         21.3614  -28.7241  -38.8648 C.3       4 UNK         0.0283 
     31 CB         20.5563  -28.8406  -37.5535 C.3       4 UNK        -0.1875 
     32 C          22.5302  -27.7251  -38.7299 C.2       4 UNK         0.4949 
     33 O          23.2663  -27.8015  -37.7450 O.2       4 UNK        -0.5039 
     34 N          22.7401  -26.8419  -39.7168 N.am      5 UNK        -0.4663 
     35 CA         23.8216  -25.8501  -39.7399 C.3       5 UNK         0.0242 
     36 CB         23.3759  -24.6484  -40.5918 C.3       5 UNK        -0.1982 
     37 C          25.1311  -26.4852  -40.2434 C.2       5 UNK         0.5017 
     38 O          25.6453  -26.0956  -41.2929 O.2       5 UNK        -0.5012 
     39 N          25.6029  -27.5021  -39.5058 N.am      6 UNK        -0.4439 
     40 CA         26.7038  -28.4189  -39.8398 C.3       6 UNK         0.0297 
     41 CB         28.0529  -27.6719  -39.9110 C.3       6 UNK        -0.2006 
     42 C          26.4242  -29.2720  -41.0979 C.2       6 UNK         0.4892 
     43 O          27.3630  -29.7281  -41.7534 O.2       6 UNK        -0.5089 
     44 N          25.1364  -29.4702  -41.4100 N.am      7 UNK        -0.4243 
     45 CA         24.6468  -30.2641  -42.5337 C.3       7 UNK         0.0196 
     46 CB         23.1967  -29.8467  -42.8327 C.3       7 UNK        -0.2007 
     47 C          24.7198  -31.7685  -42.2329 C.2       7 UNK         0.5020 
     48 O          24.6854  -32.1707  -41.0671 O.2       7 UNK        -0.5147 
     49 N          24.7492  -32.5780  -43.3002 N.am      8 UNK        -0.4734 
     50 CA         24.8070  -34.0464  -43.2523 C.3       8 UNK         0.0238 
     51 CB         24.9787  -34.5888  -44.6809 C.3       8 UNK        -0.1912 
     52 C          23.6009  -34.7176  -42.5664 C.2       8 UNK         0.5038 
     53 O          23.7254  -35.8582  -42.1182 O.2       8 UNK        -0.5046 
     54 N          22.4721  -34.0016  -42.4864 N.am      9 UNK        -0.4200 
     55 CA         21.2665  -34.4032  -41.7461 C.3       9 UNK         0.0839 
     56 C          21.4338  -34.3850  -40.1973 C.2       9 UNK         0.5513 
     57 N          22.4687  -33.7632  -39.6413 N.am      9 UNK        -0.7519 
     58 O          20.6041  -34.9477  -39.4879 O.2       9 UNK        -0.4960 
     59 C59        20.0214  -33.5756  -42.1636 C.3       10 UNK        -0.0876 
     60 S60        19.7408  -33.5541  -43.9703 S.3       10 UNK        -0.2414 
     61 C61        19.9036  -31.7801  -44.3526 C.3       10 UNK         0.0169 
     62 H62        17.3204  -21.0768  -46.1522 H         1 UNK         0.0903 
     63 H63        16.3461  -21.3649  -47.5958 H         1 UNK         0.0903 
     64 H64        15.8440  -22.0376  -46.0441 H         1 UNK         0.0903 
     65 H65        16.2657  -24.2335  -45.8973 H         1 UNK         0.3096 
     66 H66        18.1307  -25.5262  -47.6908 H         1 UNK         0.1121 
     67 H67        15.7572  -26.3673  -46.7200 H         1 UNK         0.0849 
     68 H68        16.7395  -27.0364  -45.4480 H         1 UNK         0.0849 
     69 H69        15.1505  -29.1086  -46.7180 H         1 UNK         0.0865 
     70 H70        16.1495  -30.2675  -47.5542 H         1 UNK         0.0865 
     71 H71        18.5316  -30.7506  -46.4714 H         1 UNK         0.1346 
     72 H72        18.2750  -31.2298  -42.2147 H         1 UNK         0.1412 
     73 H73        15.1625  -29.1883  -44.3348 H         1 UNK         0.1426 
     74 H74        15.5110  -30.9670  -41.4966 H         1 UNK         0.0716 
     75 H75        14.9823  -29.3780  -41.9912 H         1 UNK         0.0716 
     76 H76        16.7196  -27.4714  -42.1194 H         1 UNK         0.0695 
     77 H77        16.9820  -26.8392  -40.5193 H         1 UNK         0.0695 
     78 H78        19.1087  -28.3897  -42.0939 H         1 UNK         0.0983 
     79 H79        18.3031  -25.7740  -42.6132 H         1 UNK         0.3095 
     80 H80        20.1164  -23.9241  -43.1492 H         1 UNK         0.0454 
     81 H81        22.4527  -24.3638  -43.7478 H         1 UNK         0.0851 
     82 H82        21.9812  -25.4035  -45.0788 H         1 UNK         0.0851 
     83 H83        21.6387  -23.6754  -45.1397 H         1 UNK         0.0851 
     84 H84        18.5266  -24.0694  -44.6925 H         1 UNK         0.2976 
     85 H85        20.4670  -29.2380  -40.6971 H         1 UNK         0.3116 
     86 H86        21.8273  -29.6941  -39.0450 H         1 UNK         0.0646 
     87 H87        21.1936  -29.1600  -36.7279 H         1 UNK         0.0847 
     88 H88        19.7550  -29.5741  -37.6429 H         1 UNK         0.0847 
     89 H89        20.1092  -27.8887  -37.2657 H         1 UNK         0.0847 
     90 H90        22.1261  -26.8568  -40.5226 H         1 UNK         0.3040 
     91 H91        24.0019  -25.4868  -38.7253 H         1 UNK         0.1015 
     92 H92        22.4515  -24.2123  -40.2125 H         1 UNK         0.0786 
     93 H93        23.2106  -24.9356  -41.6295 H         1 UNK         0.0786 
     94 H94        24.1330  -23.8632  -40.5868 H         1 UNK         0.0786 
     95 H95        25.0688  -27.7373  -38.6732 H         1 UNK         0.3172 
     96 H96        26.7652  -29.1251  -39.0106 H         1 UNK         0.0595 
     97 H97        28.2277  -27.0800  -39.0128 H         1 UNK         0.0839 
     98 H98        28.1020  -27.0023  -40.7701 H         1 UNK         0.0839 
     99 H99        28.8834  -28.3732  -40.0012 H         1 UNK         0.0839 
    100 H100       24.4391  -29.0836  -40.7938 H         1 UNK         0.2998 
    101 H101       25.2657  -30.0472  -43.4073 H         1 UNK         0.0822 
    102 H102       22.8219  -30.3487  -43.7251 H         1 UNK         0.0787 
    103 H103       22.5252  -30.0919  -42.0089 H         1 UNK         0.0787 
    104 H104       23.1224  -28.7743  -43.0166 H         1 UNK         0.0787 
    105 H105       24.7573  -32.1612  -44.2208 H         1 UNK         0.3055 
    106 H106       25.6907  -34.3207  -42.6718 H         1 UNK         0.1106 
    107 H107       25.8858  -34.2037  -45.1472 H         1 UNK         0.0828 
    108 H108       25.0569  -35.6771  -44.6793 H         1 UNK         0.0828 
    109 H109       24.1332  -34.3249  -45.3175 H         1 UNK         0.0828 
    110 H110       22.4619  -33.0812  -42.8960 H         1 UNK         0.2931 
    111 H111       21.0654  -35.4422  -42.0150 H         1 UNK         0.0412 
    112 H112       23.1682  -33.2964  -40.2073 H         1 UNK         0.3472 
    113 H113       22.5603  -33.7664  -38.6379 H         1 UNK         0.3472 
    114 H114       20.1121  -32.5564  -41.7863 H         1 UNK         0.0970 
    115 H115       19.1234  -33.9860  -41.6974 H         1 UNK         0.0970 
    116 H116       20.5837  -31.2965  -43.6516 H         1 UNK         0.0612 
    117 H117       20.3719  -31.6878  -45.3337 H         1 UNK         0.0612 
@<TRIPOS>BOND
     1    1    2 1    
     2    1   62 1    
     3    1   63 1    
     4    1   64 1    
     5    2    3 2    
     6    2    4 am   BACKBONE|DICT|INTERRES
     7    4    5 1    
     8    4   65 1    
     9    5    6 1    
    10    5   25 1    
    11    5   66 1    
    12    6    7 1    
    13    6   67 1    
    14    6   68 1    
    15    7    8 1    
    16    8    9 1    
    17    8   69 1    
    18    8   70 1    
    19    9   10 ar   
    20    9   14 ar   
    21   10   11 ar   
    22   10   71 1    
    23   11   12 ar   
    24   11   61 1    
    25   12   13 ar   
    26   12   72 1    
    27   13   14 ar   
    28   13   15 1    
    29   14   73 1    
    30   15   16 1    
    31   15   74 1    
    32   15   75 1    
    33   16   17 1    
    34   17   18 1    
    35   17   76 1    
    36   17   77 1    
    37   18   19 1    
    38   18   27 1    
    39   18   78 1    
    40   19   20 am   BACKBONE|DICT|INTERRES
    41   19   79 1    
    42   20   21 2    
    43   20   22 1    
    44   22   23 1    
    45   22   24 1    
    46   22   80 1    
    47   23   81 1    
    48   23   82 1    
    49   23   83 1    
    50   24   25 am   BACKBONE|DICT|INTERRES
    51   24   84 1    
    52   25   26 2    
    53   27   28 2    
    54   27   29 am   BACKBONE|DICT|INTERRES
    55   29   30 1    
    56   29   85 1    
    57   30   31 1    
    58   30   32 1    
    59   30   86 1    
    60   31   87 1    
    61   31   88 1    
    62   31   89 1    
    63   32   33 2    
    64   32   34 am   BACKBONE|DICT|INTERRES
    65   34   35 1    
    66   34   90 1    
    67   35   36 1    
    68   35   37 1    
    69   35   91 1    
    70   36   92 1    
    71   36   93 1    
    72   36   94 1    
    73   37   38 2    
    74   37   39 am   BACKBONE|DICT|INTERRES
    75   39   40 1    
    76   39   95 1    
    77   40   41 1    
    78   40   42 1    
    79   40   96 1    
    80   41   97 1    
    81   41   98 1    
    82   41   99 1    
    83   42   43 2    
    84   42   44 am   BACKBONE|DICT|INTERRES
    85   44   45 1    
    86   44  100 1    
    87   45   46 1    
    88   45   47 1    
    89   45  101 1    
    90   46  102 1    
    91   46  103 1    
    92   46  104 1    
    93   47   48 2    
    94   47   49 am   BACKBONE|DICT|INTERRES
    95   49   50 1    
    96   49  105 1    
    97   50   51 1    
    98   50   52 1    
    99   50  106 1    
   100   51  107 1    
   101   51  108 1    
   102   51  109 1    
   103   52   53 2    
   104   52   54 am   BACKBONE|DICT|INTERRES
   105   54   55 1    
   106   54  110 1    
   107   55   56 1    
   108   55   59 1    
   109   55  111 1    
   110   56   57 am   BACKBONE|DICT|INTERRES
   111   56   58 2    
   112   57  112 1    
   113   57  113 1    
   114   59   60 1    
   115   59  114 1    
   116   59  115 1    
   117   60   61 1    
   118   61  116 1    
   119   61  117 1    
@<TRIPOS>SUBSTRUCTURE
     1 UNK         1 GROUP             0       ****    0 ROOT    
