@<TRIPOS>MOLECULE
3R8
117   119    1
SMALL
USER_CHARGES


@<TRIPOS>ATOM
      1 CA         17.3427  -27.2440  -49.8477 C.3       0 UNK        -0.2013 
      2 C          17.8916  -27.7329  -48.5156 C.2       0 UNK         0.4866 
      3 O          18.7292  -28.6355  -48.4924 O.2       0 UNK        -0.5176 
      4 N          17.4196  -27.1521  -47.4057 N.am      1 UNK        -0.4884 
      5 CA         17.8715  -27.4618  -46.0458 C.3       1 UNK         0.0853 
      6 C6         16.9034  -26.8958  -44.9801 C.3       10 UNK        -0.0849 
      7 S7         15.3122  -27.7855  -44.9100 S.3       10 UNK        -0.2776 
      8 C8         15.7899  -29.4643  -44.3537 C.3       10 UNK         0.0316 
      9 C9         16.8144  -29.4857  -43.2209 C.ar      10 UNK        -0.0863 
     10 C10        17.9528  -30.2949  -43.3200 C.ar      10 UNK        -0.1009 
     11 C11        18.8854  -30.3385  -42.2787 C.ar      10 UNK        -0.0712 
     12 C12        18.6814  -29.5552  -41.1405 C.ar      10 UNK        -0.0894 
     13 C13        17.5570  -28.7325  -41.0327 C.ar      10 UNK        -0.0745 
     14 C14        16.6185  -28.7173  -42.0679 C.ar      10 UNK        -0.0972 
     15 C15        17.3323  -27.8886  -39.7847 C.3       10 UNK         0.0209 
     16 S16        18.7744  -26.8646  -39.3441 S.3       10 UNK        -0.2568 
     17 C17        18.8106  -25.6245  -40.6795 C.3       10 UNK        -0.0983 
     18 CA         20.2225  -25.5342  -41.3223 C.3       3 UNK         0.0876 
     19 N          20.3289  -26.3523  -42.5384 N.am      3 UNK        -0.4424 
     20 C          21.4675  -26.5522  -43.2200 C.2       2 UNK         0.4918 
     21 O          22.5621  -26.1528  -42.8227 O.2       2 UNK        -0.4875 
     22 CA         21.4084  -27.3419  -44.5393 C.3       2 UNK         0.0481 
     23 CB         22.2319  -28.6347  -44.4341 C.3       2 UNK        -0.1831 
     24 N          20.0436  -27.6771  -44.9516 N.am      2 UNK        -0.4498 
     25 C          19.2974  -26.9399  -45.7855 C.2       1 UNK         0.5027 
     26 O          19.6701  -25.8814  -46.2976 O.2       1 UNK        -0.4969 
     27 C          20.6235  -24.0617  -41.6033 C.2       3 UNK         0.5005 
     28 O          20.3708  -23.5733  -42.7057 O.2       3 UNK        -0.5279 
     29 N          21.2219  -23.3331  -40.6478 N.am      4 UNK        -0.4463 
     30 CA         21.4777  -23.7036  -39.2499 C.3       4 UNK         0.0283 
     31 CB         21.5645  -22.4145  -38.4150 C.3       4 UNK        -0.1875 
     32 C          22.7353  -24.5660  -39.0225 C.2       4 UNK         0.4949 
     33 O          22.9214  -25.0429  -37.9034 O.2       4 UNK        -0.5039 
     34 N          23.5717  -24.7608  -40.0542 N.am      5 UNK        -0.4663 
     35 CA         24.7754  -25.6032  -39.9851 C.3       5 UNK         0.0242 
     36 CB         25.6439  -25.3772  -41.2335 C.3       5 UNK        -0.1982 
     37 C          24.4461  -27.0968  -39.8049 C.2       5 UNK         0.5017 
     38 O          25.0922  -27.7689  -39.0002 O.2       5 UNK        -0.5012 
     39 N          23.4184  -27.5567  -40.5311 N.am      6 UNK        -0.4439 
     40 CA         22.8220  -28.8937  -40.5051 C.3       6 UNK         0.0297 
     41 CB         22.1446  -29.1618  -39.1414 C.3       6 UNK        -0.2006 
     42 C          23.8143  -29.9855  -40.9558 C.2       6 UNK         0.4892 
     43 O          24.5448  -29.7683  -41.9242 O.2       6 UNK        -0.5089 
     44 N          23.7911  -31.1453  -40.2820 N.am      7 UNK        -0.4243 
     45 CA         24.6484  -32.3325  -40.4332 C.3       7 UNK         0.0196 
     46 CB         26.1286  -31.9876  -40.1780 C.3       7 UNK        -0.2007 
     47 C          24.4917  -33.1142  -41.7508 C.2       7 UNK         0.5020 
     48 O          24.4824  -34.3446  -41.7134 O.2       7 UNK        -0.5147 
     49 N          24.3669  -32.4141  -42.8854 N.am      8 UNK        -0.4734 
     50 CA         24.3180  -32.9828  -44.2410 C.3       8 UNK         0.0238 
     51 CB         24.3282  -31.8380  -45.2655 C.3       8 UNK        -0.1912 
     52 C          23.1293  -33.9264  -44.5061 C.2       8 UNK         0.5038 
     53 O          23.2311  -34.7966  -45.3716 O.2       8 UNK        -0.5046 
     54 N          22.0389  -33.7413  -43.7549 N.am      9 UNK        -0.4200 
     55 CA         20.8557  -34.6132  -43.7289 C.3       9 UNK         0.0839 
     56 C          21.0414  -35.9304  -42.9172 C.2       9 UNK         0.5513 
     57 N          22.1470  -36.1397  -42.2106 N.am      9 UNK        -0.7519 
     58 O          20.1660  -36.7918  -42.9443 O.2       9 UNK        -0.4960 
     59 C59        19.5820  -33.8298  -43.3046 C.3       10 UNK        -0.0876 
     60 S60        19.7886  -32.9010  -41.7431 S.3       10 UNK        -0.2414 
     61 C61        20.1162  -31.2259  -42.3700 C.3       10 UNK         0.0169 
     62 H62        18.1504  -26.8499  -50.4638 H         1 UNK         0.0903 
     63 H63        16.8742  -28.0678  -50.3857 H         1 UNK         0.0903 
     64 H64        16.5996  -26.4573  -49.7191 H         1 UNK         0.0903 
     65 H65        16.7404  -26.4085  -47.4825 H         1 UNK         0.3096 
     66 H66        17.9072  -28.5489  -45.9553 H         1 UNK         0.1121 
     67 H67        16.6972  -25.8420  -45.1772 H         1 UNK         0.0849 
     68 H68        17.3458  -26.9150  -43.9836 H         1 UNK         0.0849 
     69 H69        14.8928  -29.9881  -44.0211 H         1 UNK         0.0865 
     70 H70        16.1579  -30.0223  -45.2160 H         1 UNK         0.0865 
     71 H71        18.1066  -30.9057  -44.1991 H         1 UNK         0.1346 
     72 H72        19.3966  -29.5872  -40.3308 H         1 UNK         0.1412 
     73 H73        15.7350  -28.0986  -41.9840 H         1 UNK         0.1426 
     74 H74        17.1114  -28.5559  -38.9508 H         1 UNK         0.0716 
     75 H75        16.4619  -27.2405  -39.8993 H         1 UNK         0.0716 
     76 H76        18.5080  -24.6799  -40.2225 H         1 UNK         0.0695 
     77 H77        18.0458  -25.8418  -41.4270 H         1 UNK         0.0695 
     78 H78        20.9545  -25.9502  -40.6316 H         1 UNK         0.0983 
     79 H79        19.4668  -26.7056  -42.9204 H         1 UNK         0.3095 
     80 H80        21.8771  -26.7174  -45.3026 H         1 UNK         0.0454 
     81 H81        21.8459  -29.3029  -43.6669 H         1 UNK         0.0851 
     82 H82        23.2717  -28.4201  -44.1818 H         1 UNK         0.0851 
     83 H83        22.2357  -29.1724  -45.3818 H         1 UNK         0.0851 
     84 H84        19.6552  -28.5261  -44.5656 H         1 UNK         0.2976 
     85 H85        21.4850  -22.3889  -40.8917 H         1 UNK         0.3116 
     86 H86        20.6265  -24.2747  -38.8753 H         1 UNK         0.0646 
     87 H87        22.4008  -21.7866  -38.7250 H         1 UNK         0.0847 
     88 H88        21.7033  -22.6398  -37.3565 H         1 UNK         0.0847 
     89 H89        20.6516  -21.8243  -38.4976 H         1 UNK         0.0847 
     90 H90        23.3533  -24.3429  -40.9482 H         1 UNK         0.3040 
     91 H91        25.3531  -25.2906  -39.1120 H         1 UNK         0.1015 
     92 H92        25.1205  -25.6506  -42.1501 H         1 UNK         0.0786 
     93 H93        26.5529  -25.9787  -41.1878 H         1 UNK         0.0786 
     94 H94        25.9505  -24.3347  -41.3200 H         1 UNK         0.0786 
     95 H95        23.0634  -26.9355  -41.2547 H         1 UNK         0.3172 
     96 H96        22.0346  -28.8682  -41.2570 H         1 UNK         0.0595 
     97 H97        21.5425  -30.0707  -39.1614 H         1 UNK         0.0839 
     98 H98        21.4723  -28.3465  -38.8738 H         1 UNK         0.0839 
     99 H99        22.8728  -29.2600  -38.3352 H         1 UNK         0.0839 
    100 H100       23.1196  -31.2132  -39.5298 H         1 UNK         0.2998 
    101 H101       24.3362  -33.0136  -39.6396 H         1 UNK         0.0822 
    102 H102       26.7456  -32.8872  -40.1883 H         1 UNK         0.0787 
    103 H103       26.5277  -31.3133  -40.9366 H         1 UNK         0.0787 
    104 H104       26.2629  -31.5135  -39.2056 H         1 UNK         0.0787 
    105 H105       24.4191  -31.4006  -42.8032 H         1 UNK         0.3055 
    106 H106       25.2268  -33.5731  -44.3776 H         1 UNK         0.1106 
    107 H107       24.3599  -32.2255  -46.2849 H         1 UNK         0.0828 
    108 H108       23.4356  -31.2195  -45.1804 H         1 UNK         0.0828 
    109 H109       25.1987  -31.1942  -45.1373 H         1 UNK         0.0828 
    110 H110       22.0690  -33.0269  -43.0440 H         1 UNK         0.2931 
    111 H111       20.6820  -34.9427  -44.7552 H         1 UNK         0.0412 
    112 H112       22.8891  -35.4492  -42.1706 H         1 UNK         0.3472 
    113 H113       22.2444  -37.0032  -41.7006 H         1 UNK         0.3472 
    114 H114       18.7285  -34.5020  -43.1974 H         1 UNK         0.0970 
    115 H115       19.2963  -33.1418  -44.1009 H         1 UNK         0.0970 
    116 H116       20.4835  -31.2619  -43.3962 H         1 UNK         0.0612 
    117 H117       20.9242  -30.8028  -41.7761 H         1 UNK         0.0612 
@<TRIPOS>BOND
     1    1    2 1    
     2    1   62 1    
     3    1   63 1    
     4    1   64 1    
     5    2    3 2    
     6    2    4 am   BACKBONE|DICT|INTERRES
     7    4    5 1    
     8    4   65 1    
     9    5    6 1    
    10    5   25 1    
    11    5   66 1    
    12    6    7 1    
    13    6   67 1    
    14    6   68 1    
    15    7    8 1    
    16    8    9 1    
    17    8   69 1    
    18    8   70 1    
    19    9   10 ar   
    20    9   14 ar   
    21   10   11 ar   
    22   10   71 1    
    23   11   12 ar   
    24   11   61 1    
    25   12   13 ar   
    26   12   72 1    
    27   13   14 ar   
    28   13   15 1    
    29   14   73 1    
    30   15   16 1    
    31   15   74 1    
    32   15   75 1    
    33   16   17 1    
    34   17   18 1    
    35   17   76 1    
    36   17   77 1    
    37   18   19 1    
    38   18   27 1    
    39   18   78 1    
    40   19   20 am   BACKBONE|DICT|INTERRES
    41   19   79 1    
    42   20   21 2    
    43   20   22 1    
    44   22   23 1    
    45   22   24 1    
    46   22   80 1    
    47   23   81 1    
    48   23   82 1    
    49   23   83 1    
    50   24   25 am   BACKBONE|DICT|INTERRES
    51   24   84 1    
    52   25   26 2    
    53   27   28 2    
    54   27   29 am   BACKBONE|DICT|INTERRES
    55   29   30 1    
    56   29   85 1    
    57   30   31 1    
    58   30   32 1    
    59   30   86 1    
    60   31   87 1    
    61   31   88 1    
    62   31   89 1    
    63   32   33 2    
    64   32   34 am   BACKBONE|DICT|INTERRES
    65   34   35 1    
    66   34   90 1    
    67   35   36 1    
    68   35   37 1    
    69   35   91 1    
    70   36   92 1    
    71   36   93 1    
    72   36   94 1    
    73   37   38 2    
    74   37   39 am   BACKBONE|DICT|INTERRES
    75   39   40 1    
    76   39   95 1    
    77   40   41 1    
    78   40   42 1    
    79   40   96 1    
    80   41   97 1    
    81   41   98 1    
    82   41   99 1    
    83   42   43 2    
    84   42   44 am   BACKBONE|DICT|INTERRES
    85   44   45 1    
    86   44  100 1    
    87   45   46 1    
    88   45   47 1    
    89   45  101 1    
    90   46  102 1    
    91   46  103 1    
    92   46  104 1    
    93   47   48 2    
    94   47   49 am   BACKBONE|DICT|INTERRES
    95   49   50 1    
    96   49  105 1    
    97   50   51 1    
    98   50   52 1    
    99   50  106 1    
   100   51  107 1    
   101   51  108 1    
   102   51  109 1    
   103   52   53 2    
   104   52   54 am   BACKBONE|DICT|INTERRES
   105   54   55 1    
   106   54  110 1    
   107   55   56 1    
   108   55   59 1    
   109   55  111 1    
   110   56   57 am   BACKBONE|DICT|INTERRES
   111   56   58 2    
   112   57  112 1    
   113   57  113 1    
   114   59   60 1    
   115   59  114 1    
   116   59  115 1    
   117   60   61 1    
   118   61  116 1    
   119   61  117 1    
@<TRIPOS>SUBSTRUCTURE
     1 UNK         1 GROUP             0       ****    0 ROOT    
