@<TRIPOS>MOLECULE
3R8
117   119    1
SMALL
USER_CHARGES


@<TRIPOS>ATOM
      1 CA         15.2099  -24.4254  -48.3090 C.3       0 UNK        -0.2013 
      2 C          16.2440  -25.0736  -47.4013 C.2       0 UNK         0.4866 
      3 O          17.4428  -24.9777  -47.6689 O.2       0 UNK        -0.5176 
      4 N          15.7959  -25.7292  -46.3232 N.am      1 UNK        -0.4884 
      5 CA         16.6356  -26.4184  -45.3358 C.3       1 UNK         0.0853 
      6 C6         15.8598  -27.5466  -44.6071 C.3       10 UNK        -0.0849 
      7 S7         15.4332  -28.9377  -45.7127 S.3       10 UNK        -0.2776 
      8 C8         17.0025  -29.8688  -45.8210 C.3       10 UNK         0.0316 
      9 C9         17.4442  -30.4332  -44.4773 C.ar      10 UNK        -0.0863 
     10 C10        16.9379  -31.6532  -44.0193 C.ar      10 UNK        -0.1009 
     11 C11        17.3294  -32.1636  -42.7768 C.ar      10 UNK        -0.0712 
     12 C12        18.2210  -31.4353  -41.9831 C.ar      10 UNK        -0.0894 
     13 C13        18.7440  -30.2220  -42.4372 C.ar      10 UNK        -0.0745 
     14 C14        18.3664  -29.7363  -43.6920 C.ar      10 UNK        -0.0972 
     15 C15        19.7316  -29.4376  -41.5891 C.3       10 UNK         0.0209 
     16 S16        19.0226  -27.8482  -41.0529 S.3       10 UNK        -0.2568 
     17 C17        20.5483  -26.9068  -40.7460 C.3       10 UNK        -0.0983 
     18 CA         21.0737  -26.2343  -42.0382 C.3       3 UNK         0.0876 
     19 N          20.1611  -25.1975  -42.5322 N.am      3 UNK        -0.4424 
     20 C          20.2809  -24.5519  -43.6993 C.2       2 UNK         0.4918 
     21 O          21.2392  -24.6731  -44.4638 O.2       2 UNK        -0.4875 
     22 CA         19.0736  -23.7007  -44.1248 C.3       2 UNK         0.0481 
     23 CB         19.4858  -22.4977  -44.9914 C.3       2 UNK        -0.1831 
     24 N          18.1581  -24.5495  -44.8854 N.am      2 UNK        -0.4498 
     25 C          17.2917  -25.4213  -44.3544 C.2       1 UNK         0.5027 
     26 O          17.0224  -25.4582  -43.1523 O.2       1 UNK        -0.4969 
     27 C          22.5249  -25.7603  -41.8466 C.2       3 UNK         0.5005 
     28 O          23.4402  -26.5082  -42.1969 O.2       3 UNK        -0.5279 
     29 N          22.7115  -24.5516  -41.2923 N.am      4 UNK        -0.4463 
     30 CA         24.0000  -23.9233  -40.9682 C.3       4 UNK         0.0283 
     31 CB         24.7314  -23.4876  -42.2583 C.3       4 UNK        -0.1875 
     32 C          24.8527  -24.8143  -40.0408 C.2       4 UNK         0.4949 
     33 O          24.5968  -24.8444  -38.8371 O.2       4 UNK        -0.5039 
     34 N          25.8174  -25.5459  -40.6162 N.am      5 UNK        -0.4663 
     35 CA         26.6405  -26.5499  -39.9336 C.3       5 UNK         0.0242 
     36 CB         27.8585  -26.8745  -40.8145 C.3       5 UNK        -0.1982 
     37 C          25.8789  -27.8431  -39.5762 C.2       5 UNK         0.5017 
     38 O          26.3630  -28.5994  -38.7338 O.2       5 UNK        -0.5012 
     39 N          24.7204  -28.0731  -40.2151 N.am      6 UNK        -0.4439 
     40 CA         23.8092  -29.2101  -40.0390 C.3       6 UNK         0.0297 
     41 CB         23.1981  -29.2215  -38.6215 C.3       6 UNK        -0.2006 
     42 C          24.4360  -30.5552  -40.4462 C.2       6 UNK         0.4892 
     43 O          24.3168  -31.5429  -39.7194 O.2       6 UNK        -0.5089 
     44 N          25.0862  -30.5650  -41.6187 N.am      7 UNK        -0.4243 
     45 CA         25.6237  -31.7728  -42.2517 C.3       7 UNK         0.0196 
     46 CB         26.6309  -31.3734  -43.3422 C.3       7 UNK        -0.2007 
     47 C          24.5172  -32.6706  -42.8355 C.2       7 UNK         0.5020 
     48 O          24.6550  -33.8946  -42.8160 O.2       7 UNK        -0.5147 
     49 N          23.4376  -32.0526  -43.3368 N.am      8 UNK        -0.4734 
     50 CA         22.2390  -32.7390  -43.8234 C.3       8 UNK         0.0238 
     51 CB         21.3471  -31.7410  -44.5787 C.3       8 UNK        -0.1912 
     52 C          21.4723  -33.3950  -42.6633 C.2       8 UNK         0.5038 
     53 O          21.2995  -32.7627  -41.6188 O.2       8 UNK        -0.5046 
     54 N          21.0486  -34.6480  -42.8726 N.am      9 UNK        -0.4200 
     55 CA         20.4012  -35.5239  -41.8786 C.3       9 UNK         0.0839 
     56 C          21.3109  -35.9255  -40.6747 C.2       9 UNK         0.5513 
     57 N          22.6243  -35.7366  -40.7378 N.am      9 UNK        -0.7519 
     58 O          20.8259  -36.4554  -39.6780 O.2       9 UNK        -0.4960 
     59 C59        18.9985  -35.0190  -41.4302 C.3       10 UNK        -0.0876 
     60 S60        17.8161  -34.8913  -42.8163 S.3       10 UNK        -0.2414 
     61 C61        16.7737  -33.4938  -42.2917 C.3       10 UNK         0.0169 
     62 H62        15.2888  -24.8321  -49.3168 H         1 UNK         0.0903 
     63 H63        14.1931  -24.5931  -47.9543 H         1 UNK         0.0903 
     64 H64        15.3783  -23.3501  -48.3611 H         1 UNK         0.0903 
     65 H65        14.8018  -25.7655  -46.1457 H         1 UNK         0.3096 
     66 H66        17.4659  -26.8889  -45.8664 H         1 UNK         0.1121 
     67 H67        16.4190  -27.9339  -43.7555 H         1 UNK         0.0849 
     68 H68        14.9351  -27.1522  -44.1822 H         1 UNK         0.0849 
     69 H69        16.8736  -30.6863  -46.5321 H         1 UNK         0.0865 
     70 H70        17.7811  -29.2317  -46.2422 H         1 UNK         0.0865 
     71 H71        16.2349  -32.2044  -44.6290 H         1 UNK         0.1346 
     72 H72        18.5196  -31.8175  -41.0172 H         1 UNK         0.1412 
     73 H73        18.7732  -28.7976  -44.0422 H         1 UNK         0.1426 
     74 H74        20.6348  -29.2664  -42.1752 H         1 UNK         0.0716 
     75 H75        20.0396  -30.0090  -40.7117 H         1 UNK         0.0716 
     76 H76        21.2853  -27.5839  -40.3144 H         1 UNK         0.0695 
     77 H77        20.3458  -26.1581  -39.9779 H         1 UNK         0.0695 
     78 H78        21.1182  -26.9950  -42.8206 H         1 UNK         0.0983 
     79 H79        19.3000  -25.0872  -42.0136 H         1 UNK         0.3095 
     80 H80        18.5722  -23.3199  -43.2324 H         1 UNK         0.0454 
     81 H81        20.1942  -21.8605  -44.4607 H         1 UNK         0.0851 
     82 H82        18.6236  -21.8816  -45.2469 H         1 UNK         0.0851 
     83 H83        19.9606  -22.8083  -45.9231 H         1 UNK         0.0851 
     84 H84        18.2846  -24.5761  -45.8930 H         1 UNK         0.2976 
     85 H85        21.8895  -24.0308  -41.0191 H         1 UNK         0.3116 
     86 H86        23.7732  -23.0194  -40.4007 H         1 UNK         0.0646 
     87 H87        24.9151  -24.3195  -42.9387 H         1 UNK         0.0847 
     88 H88        25.6935  -23.0272  -42.0289 H         1 UNK         0.0847 
     89 H89        24.1462  -22.7474  -42.8041 H         1 UNK         0.0847 
     90 H90        25.9245  -25.4783  -41.6185 H         1 UNK         0.3040 
     91 H91        26.9983  -26.1181  -38.9962 H         1 UNK         0.1015 
     92 H92        28.4524  -25.9827  -41.0154 H         1 UNK         0.0786 
     93 H93        27.5620  -27.3051  -41.7719 H         1 UNK         0.0786 
     94 H94        28.5153  -27.5942  -40.3236 H         1 UNK         0.0786 
     95 H95        24.4267  -27.3932  -40.9156 H         1 UNK         0.3172 
     96 H96        22.9934  -29.0504  -40.7440 H         1 UNK         0.0595 
     97 H97        23.9444  -29.4491  -37.8598 H         1 UNK         0.0839 
     98 H98        22.4144  -29.9760  -38.5425 H         1 UNK         0.0839 
     99 H99        22.7492  -28.2600  -38.3728 H         1 UNK         0.0839 
    100 H100       25.1633  -29.7005  -42.1352 H         1 UNK         0.2998 
    101 H101       26.1546  -32.3524  -41.4932 H         1 UNK         0.0822 
    102 H102       27.0642  -32.2569  -43.8134 H         1 UNK         0.0787 
    103 H103       26.1635  -30.7805  -44.1295 H         1 UNK         0.0787 
    104 H104       27.4548  -30.7922  -42.9274 H         1 UNK         0.0787 
    105 H105       23.3943  -31.0466  -43.2831 H         1 UNK         0.3055 
    106 H106       22.5548  -33.5158  -44.5238 H         1 UNK         0.1106 
    107 H107       21.8417  -31.3645  -45.4741 H         1 UNK         0.0828 
    108 H108       20.4129  -32.2082  -44.8949 H         1 UNK         0.0828 
    109 H109       21.0863  -30.8862  -43.9566 H         1 UNK         0.0828 
    110 H110       21.2384  -35.0826  -43.7638 H         1 UNK         0.2931 
    111 H111       20.2397  -36.4653  -42.4052 H         1 UNK         0.0412 
    112 H112       23.0473  -35.2928  -41.5400 H         1 UNK         0.3472 
    113 H113       23.1980  -36.0127  -39.9566 H         1 UNK         0.3472 
    114 H114       18.5572  -35.7033  -40.7036 H         1 UNK         0.0970 
    115 H115       19.0877  -34.0610  -40.9190 H         1 UNK         0.0970 
    116 H116       15.7703  -33.6400  -42.6943 H         1 UNK         0.0612 
    117 H117       16.6651  -33.4935  -41.2059 H         1 UNK         0.0612 
@<TRIPOS>BOND
     1    1    2 1    
     2    1   62 1    
     3    1   63 1    
     4    1   64 1    
     5    2    3 2    
     6    2    4 am   BACKBONE|DICT|INTERRES
     7    4    5 1    
     8    4   65 1    
     9    5    6 1    
    10    5   25 1    
    11    5   66 1    
    12    6    7 1    
    13    6   67 1    
    14    6   68 1    
    15    7    8 1    
    16    8    9 1    
    17    8   69 1    
    18    8   70 1    
    19    9   10 ar   
    20    9   14 ar   
    21   10   11 ar   
    22   10   71 1    
    23   11   12 ar   
    24   11   61 1    
    25   12   13 ar   
    26   12   72 1    
    27   13   14 ar   
    28   13   15 1    
    29   14   73 1    
    30   15   16 1    
    31   15   74 1    
    32   15   75 1    
    33   16   17 1    
    34   17   18 1    
    35   17   76 1    
    36   17   77 1    
    37   18   19 1    
    38   18   27 1    
    39   18   78 1    
    40   19   20 am   BACKBONE|DICT|INTERRES
    41   19   79 1    
    42   20   21 2    
    43   20   22 1    
    44   22   23 1    
    45   22   24 1    
    46   22   80 1    
    47   23   81 1    
    48   23   82 1    
    49   23   83 1    
    50   24   25 am   BACKBONE|DICT|INTERRES
    51   24   84 1    
    52   25   26 2    
    53   27   28 2    
    54   27   29 am   BACKBONE|DICT|INTERRES
    55   29   30 1    
    56   29   85 1    
    57   30   31 1    
    58   30   32 1    
    59   30   86 1    
    60   31   87 1    
    61   31   88 1    
    62   31   89 1    
    63   32   33 2    
    64   32   34 am   BACKBONE|DICT|INTERRES
    65   34   35 1    
    66   34   90 1    
    67   35   36 1    
    68   35   37 1    
    69   35   91 1    
    70   36   92 1    
    71   36   93 1    
    72   36   94 1    
    73   37   38 2    
    74   37   39 am   BACKBONE|DICT|INTERRES
    75   39   40 1    
    76   39   95 1    
    77   40   41 1    
    78   40   42 1    
    79   40   96 1    
    80   41   97 1    
    81   41   98 1    
    82   41   99 1    
    83   42   43 2    
    84   42   44 am   BACKBONE|DICT|INTERRES
    85   44   45 1    
    86   44  100 1    
    87   45   46 1    
    88   45   47 1    
    89   45  101 1    
    90   46  102 1    
    91   46  103 1    
    92   46  104 1    
    93   47   48 2    
    94   47   49 am   BACKBONE|DICT|INTERRES
    95   49   50 1    
    96   49  105 1    
    97   50   51 1    
    98   50   52 1    
    99   50  106 1    
   100   51  107 1    
   101   51  108 1    
   102   51  109 1    
   103   52   53 2    
   104   52   54 am   BACKBONE|DICT|INTERRES
   105   54   55 1    
   106   54  110 1    
   107   55   56 1    
   108   55   59 1    
   109   55  111 1    
   110   56   57 am   BACKBONE|DICT|INTERRES
   111   56   58 2    
   112   57  112 1    
   113   57  113 1    
   114   59   60 1    
   115   59  114 1    
   116   59  115 1    
   117   60   61 1    
   118   61  116 1    
   119   61  117 1    
@<TRIPOS>SUBSTRUCTURE
     1 UNK         1 GROUP             0       ****    0 ROOT    
