@<TRIPOS>MOLECULE
3R8
117   119    1
SMALL
USER_CHARGES


@<TRIPOS>ATOM
      1 CA         15.8380  -21.8886  -43.8959 C.3       0 UNK        -0.2013 
      2 C          16.6091  -22.8417  -44.7979 C.2       0 UNK         0.4866 
      3 O          17.4605  -22.3980  -45.5697 O.2       0 UNK        -0.5176 
      4 N          16.3115  -24.1453  -44.7125 N.am      1 UNK        -0.4884 
      5 CA         17.0049  -25.2099  -45.4465 C.3       1 UNK         0.0853 
      6 C6         16.0785  -26.4400  -45.6634 C.3       10 UNK        -0.0849 
      7 S7         16.5627  -27.4306  -47.1232 S.3       10 UNK        -0.2776 
      8 C8         15.7239  -29.0167  -46.8178 C.3       10 UNK         0.0316 
      9 C9         16.3781  -29.8385  -45.7125 C.ar      10 UNK        -0.0863 
     10 C10        17.5207  -30.6047  -45.9755 C.ar      10 UNK        -0.1009 
     11 C11        18.0615  -31.4390  -44.9891 C.ar      10 UNK        -0.0712 
     12 C12        17.4506  -31.4985  -43.7337 C.ar      10 UNK        -0.0894 
     13 C13        16.3334  -30.7103  -43.4464 C.ar      10 UNK        -0.0745 
     14 C14        15.7984  -29.8867  -44.4413 C.ar      10 UNK        -0.0972 
     15 C15        15.6924  -30.7630  -42.0659 C.3       10 UNK         0.0209 
     16 S16        16.8356  -30.2441  -40.7427 S.3       10 UNK        -0.2568 
     17 C17        17.3207  -28.5746  -41.2917 C.3       10 UNK        -0.0983 
     18 CA         18.8453  -28.4860  -41.6021 C.3       3 UNK         0.0876 
     19 N          19.0876  -28.0391  -42.9833 N.am      3 UNK        -0.4424 
     20 C          20.2818  -27.8246  -43.5567 C.2       2 UNK         0.4918 
     21 O          21.3494  -28.0843  -43.0076 O.2       2 UNK        -0.4875 
     22 CA         20.3146  -27.1330  -44.9340 C.3       2 UNK         0.0481 
     23 CB         20.8196  -28.0926  -46.0216 C.3       2 UNK        -0.1831 
     24 N          19.0427  -26.5525  -45.3718 N.am      2 UNK        -0.4498 
     25 C          18.3379  -25.5918  -44.7597 C.2       1 UNK         0.5027 
     26 O          18.6815  -25.0702  -43.6933 O.2       1 UNK        -0.4969 
     27 C          19.5665  -27.6278  -40.5316 C.2       3 UNK         0.5005 
     28 O          19.8666  -28.1344  -39.4491 O.2       3 UNK        -0.5279 
     29 N          19.8323  -26.3510  -40.8508 N.am      4 UNK        -0.4463 
     30 CA         20.5919  -25.4130  -40.0220 C.3       4 UNK         0.0283 
     31 CB         20.3482  -23.9874  -40.5476 C.3       4 UNK        -0.1875 
     32 C          22.1057  -25.7071  -39.9520 C.2       4 UNK         0.4949 
     33 O          22.7675  -25.1628  -39.0663 O.2       4 UNK        -0.5039 
     34 N          22.6448  -26.5186  -40.8759 N.am      5 UNK        -0.4663 
     35 CA         24.0635  -26.8850  -40.9199 C.3       5 UNK         0.0242 
     36 CB         24.4038  -27.4561  -42.3073 C.3       5 UNK        -0.1982 
     37 C          24.4335  -27.8981  -39.8239 C.2       5 UNK         0.5017 
     38 O          23.5967  -28.7029  -39.4109 O.2       5 UNK        -0.5012 
     39 N          25.7050  -27.8636  -39.4080 N.am      6 UNK        -0.4439 
     40 CA         26.2836  -28.7546  -38.3969 C.3       6 UNK         0.0297 
     41 CB         27.4508  -28.0238  -37.7113 C.3       6 UNK        -0.2006 
     42 C          26.7508  -30.1132  -38.9583 C.2       6 UNK         0.4892 
     43 O          27.2366  -30.9396  -38.1843 O.2       6 UNK        -0.5089 
     44 N          26.6271  -30.3226  -40.2740 N.am      7 UNK        -0.4243 
     45 CA         27.0439  -31.5266  -40.9867 C.3       7 UNK         0.0196 
     46 CB         28.4704  -31.3253  -41.5294 C.3       7 UNK        -0.2007 
     47 C          26.0552  -31.8183  -42.1217 C.2       7 UNK         0.5020 
     48 O          25.2508  -30.9518  -42.4746 O.2       7 UNK        -0.5147 
     49 N          26.1450  -33.0376  -42.6711 N.am      8 UNK        -0.4734 
     50 CA         25.3445  -33.6188  -43.7600 C.3       8 UNK         0.0238 
     51 CB         25.4729  -32.8089  -45.0675 C.3       8 UNK        -0.1912 
     52 C          23.8747  -33.8617  -43.3781 C.2       8 UNK         0.5038 
     53 O          23.4464  -35.0161  -43.3355 O.2       8 UNK        -0.5046 
     54 N          23.1431  -32.7798  -43.0957 N.am      9 UNK        -0.4200 
     55 CA         21.7412  -32.7956  -42.6515 C.3       9 UNK         0.0839 
     56 C          21.5706  -32.9812  -41.1159 C.2       9 UNK         0.5513 
     57 N          22.6346  -32.9994  -40.3203 N.am      9 UNK        -0.7519 
     58 O          20.4481  -33.1283  -40.6394 O.2       9 UNK        -0.4960 
     59 C59        20.9773  -31.5456  -43.1541 C.3       10 UNK        -0.0876 
     60 S60        20.8564  -31.4833  -44.9748 S.3       10 UNK        -0.2414 
     61 C61        19.2684  -32.3192  -45.2928 C.3       10 UNK         0.0169 
     62 H62        15.3270  -21.1336  -44.4955 H         1 UNK         0.0903 
     63 H63        15.0901  -22.4093  -43.2969 H         1 UNK         0.0903 
     64 H64        16.5231  -21.3790  -43.2164 H         1 UNK         0.0903 
     65 H65        15.6278  -24.4512  -44.0348 H         1 UNK         0.3096 
     66 H66        17.2658  -24.8083  -46.4292 H         1 UNK         0.1121 
     67 H67        15.0532  -26.1091  -45.8402 H         1 UNK         0.0849 
     68 H68        16.0393  -27.0658  -44.7704 H         1 UNK         0.0849 
     69 H69        14.6724  -28.8310  -46.5922 H         1 UNK         0.0865 
     70 H70        15.7307  -29.5963  -47.7425 H         1 UNK         0.0865 
     71 H71        17.9725  -30.5732  -46.9578 H         1 UNK         0.1346 
     72 H72        17.8424  -32.1574  -42.9710 H         1 UNK         0.1412 
     73 H73        14.9150  -29.2980  -44.2325 H         1 UNK         0.1426 
     74 H74        15.3597  -31.7827  -41.8663 H         1 UNK         0.0716 
     75 H75        14.8007  -30.1350  -42.0253 H         1 UNK         0.0716 
     76 H76        17.0087  -27.8730  -40.5145 H         1 UNK         0.0695 
     77 H77        16.7220  -28.2937  -42.1590 H         1 UNK         0.0695 
     78 H78        19.2940  -29.4797  -41.5348 H         1 UNK         0.0983 
     79 H79        18.2678  -27.8167  -43.5263 H         1 UNK         0.3095 
     80 H80        21.0309  -26.3128  -44.8508 H         1 UNK         0.0454 
     81 H81        20.1008  -28.8894  -46.2179 H         1 UNK         0.0851 
     82 H82        21.7597  -28.5632  -45.7275 H         1 UNK         0.0851 
     83 H83        21.0027  -27.5686  -46.9596 H         1 UNK         0.0851 
     84 H84        18.6401  -26.9516  -46.2120 H         1 UNK         0.2976 
     85 H85        19.5300  -26.0115  -41.7568 H         1 UNK         0.3116 
     86 H86        20.2044  -25.4707  -39.0022 H         1 UNK         0.0646 
     87 H87        19.2889  -23.7299  -40.5252 H         1 UNK         0.0847 
     88 H88        20.6984  -23.8711  -41.5748 H         1 UNK         0.0847 
     89 H89        20.8720  -23.2489  -39.9377 H         1 UNK         0.0847 
     90 H90        22.0412  -26.9865  -41.5463 H         1 UNK         0.3040 
     91 H91        24.6497  -25.9755  -40.7685 H         1 UNK         0.1015 
     92 H92        25.4768  -27.6217  -42.4131 H         1 UNK         0.0786 
     93 H93        24.1007  -26.7774  -43.1046 H         1 UNK         0.0786 
     94 H94        23.9131  -28.4155  -42.4799 H         1 UNK         0.0786 
     95 H95        26.3324  -27.1850  -39.8166 H         1 UNK         0.3172 
     96 H96        25.5275  -28.9645  -37.6381 H         1 UNK         0.0595 
     97 H97        28.2574  -27.8045  -38.4111 H         1 UNK         0.0839 
     98 H98        27.8744  -28.6275  -36.9075 H         1 UNK         0.0839 
     99 H99        27.1249  -27.0835  -37.2667 H         1 UNK         0.0839 
    100 H100       26.1337  -29.6447  -40.8396 H         1 UNK         0.2998 
    101 H101       27.0300  -32.3809  -40.3062 H         1 UNK         0.0822 
    102 H102       29.1760  -31.1267  -40.7223 H         1 UNK         0.0787 
    103 H103       28.8250  -32.2125  -42.0550 H         1 UNK         0.0787 
    104 H104       28.5192  -30.4896  -42.2286 H         1 UNK         0.0787 
    105 H105       26.8335  -33.6676  -42.2805 H         1 UNK         0.3055 
    106 H106       25.7766  -34.6028  -43.9529 H         1 UNK         0.1106 
    107 H107       25.0676  -31.8009  -44.9759 H         1 UNK         0.0828 
    108 H108       24.9344  -33.2981  -45.8803 H         1 UNK         0.0828 
    109 H109       26.5145  -32.7216  -45.3766 H         1 UNK         0.0828 
    110 H110       23.6169  -31.8817  -43.0857 H         1 UNK         0.2931 
    111 H111       21.2557  -33.6657  -43.0985 H         1 UNK         0.0412 
    112 H112       23.5585  -32.8766  -40.7013 H         1 UNK         0.3472 
    113 H113       22.5069  -33.1249  -39.3284 H         1 UNK         0.3472 
    114 H114       19.9778  -31.4948  -42.7273 H         1 UNK         0.0970 
    115 H115       21.4880  -30.6449  -42.8125 H         1 UNK         0.0970 
    116 H116       19.2230  -33.2427  -44.7134 H         1 UNK         0.0612 
    117 H117       19.2421  -32.6210  -46.3409 H         1 UNK         0.0612 
@<TRIPOS>BOND
     1    1    2 1    
     2    1   62 1    
     3    1   63 1    
     4    1   64 1    
     5    2    3 2    
     6    2    4 am   BACKBONE|DICT|INTERRES
     7    4    5 1    
     8    4   65 1    
     9    5    6 1    
    10    5   25 1    
    11    5   66 1    
    12    6    7 1    
    13    6   67 1    
    14    6   68 1    
    15    7    8 1    
    16    8    9 1    
    17    8   69 1    
    18    8   70 1    
    19    9   10 ar   
    20    9   14 ar   
    21   10   11 ar   
    22   10   71 1    
    23   11   12 ar   
    24   11   61 1    
    25   12   13 ar   
    26   12   72 1    
    27   13   14 ar   
    28   13   15 1    
    29   14   73 1    
    30   15   16 1    
    31   15   74 1    
    32   15   75 1    
    33   16   17 1    
    34   17   18 1    
    35   17   76 1    
    36   17   77 1    
    37   18   19 1    
    38   18   27 1    
    39   18   78 1    
    40   19   20 am   BACKBONE|DICT|INTERRES
    41   19   79 1    
    42   20   21 2    
    43   20   22 1    
    44   22   23 1    
    45   22   24 1    
    46   22   80 1    
    47   23   81 1    
    48   23   82 1    
    49   23   83 1    
    50   24   25 am   BACKBONE|DICT|INTERRES
    51   24   84 1    
    52   25   26 2    
    53   27   28 2    
    54   27   29 am   BACKBONE|DICT|INTERRES
    55   29   30 1    
    56   29   85 1    
    57   30   31 1    
    58   30   32 1    
    59   30   86 1    
    60   31   87 1    
    61   31   88 1    
    62   31   89 1    
    63   32   33 2    
    64   32   34 am   BACKBONE|DICT|INTERRES
    65   34   35 1    
    66   34   90 1    
    67   35   36 1    
    68   35   37 1    
    69   35   91 1    
    70   36   92 1    
    71   36   93 1    
    72   36   94 1    
    73   37   38 2    
    74   37   39 am   BACKBONE|DICT|INTERRES
    75   39   40 1    
    76   39   95 1    
    77   40   41 1    
    78   40   42 1    
    79   40   96 1    
    80   41   97 1    
    81   41   98 1    
    82   41   99 1    
    83   42   43 2    
    84   42   44 am   BACKBONE|DICT|INTERRES
    85   44   45 1    
    86   44  100 1    
    87   45   46 1    
    88   45   47 1    
    89   45  101 1    
    90   46  102 1    
    91   46  103 1    
    92   46  104 1    
    93   47   48 2    
    94   47   49 am   BACKBONE|DICT|INTERRES
    95   49   50 1    
    96   49  105 1    
    97   50   51 1    
    98   50   52 1    
    99   50  106 1    
   100   51  107 1    
   101   51  108 1    
   102   51  109 1    
   103   52   53 2    
   104   52   54 am   BACKBONE|DICT|INTERRES
   105   54   55 1    
   106   54  110 1    
   107   55   56 1    
   108   55   59 1    
   109   55  111 1    
   110   56   57 am   BACKBONE|DICT|INTERRES
   111   56   58 2    
   112   57  112 1    
   113   57  113 1    
   114   59   60 1    
   115   59  114 1    
   116   59  115 1    
   117   60   61 1    
   118   61  116 1    
   119   61  117 1    
@<TRIPOS>SUBSTRUCTURE
     1 UNK         1 GROUP             0       ****    0 ROOT    
