@<TRIPOS>MOLECULE
3R8
117   119    1
SMALL
USER_CHARGES


@<TRIPOS>ATOM
      1 CA         16.1544  -21.9669  -41.2951 C.3       0 UNK        -0.2013 
      2 C          16.5303  -23.1083  -42.2280 C.2       0 UNK         0.4866 
      3 O          15.8520  -23.3279  -43.2321 O.2       0 UNK        -0.5176 
      4 N          17.6025  -23.8423  -41.9036 N.am      1 UNK        -0.4884 
      5 CA         18.1414  -24.9343  -42.7153 C.3       1 UNK         0.0853 
      6 C6         18.9931  -25.8995  -41.8505 C.3       10 UNK        -0.0849 
      7 S7         19.6219  -27.3412  -42.7728 S.3       10 UNK        -0.2776 
      8 C8         18.1796  -28.4541  -42.7199 C.3       10 UNK         0.0316 
      9 C9         18.3965  -29.6511  -43.6303 C.ar      10 UNK        -0.0863 
     10 C10        18.4065  -30.9511  -43.1199 C.ar      10 UNK        -0.1009 
     11 C11        18.6249  -32.0404  -43.9690 C.ar      10 UNK        -0.0712 
     12 C12        18.8742  -31.8145  -45.3281 C.ar      10 UNK        -0.0894 
     13 C13        18.8817  -30.5166  -45.8528 C.ar      10 UNK        -0.0745 
     14 C14        18.5946  -29.4473  -44.9971 C.ar      10 UNK        -0.0972 
     15 C15        19.2096  -30.3209  -47.3377 C.3       10 UNK         0.0209 
     16 S16        19.5451  -28.6021  -47.8836 S.3       10 UNK        -0.2568 
     17 C17        21.0461  -28.1827  -46.9292 C.3       10 UNK        -0.0983 
     18 CA         21.3756  -26.6644  -46.9014 C.3       3 UNK         0.0876 
     19 N          20.2127  -25.8344  -46.5612 N.am      3 UNK        -0.4424 
     20 C          20.1111  -24.5269  -46.8371 C.2       2 UNK         0.4918 
     21 O          20.9714  -23.8849  -47.4399 O.2       2 UNK        -0.4875 
     22 CA         18.8434  -23.8058  -46.3438 C.3       2 UNK         0.0481 
     23 CB         17.7593  -23.8289  -47.4327 C.3       2 UNK        -0.1831 
     24 N          18.2914  -24.3471  -45.0965 N.am      2 UNK        -0.4498 
     25 C          18.9184  -24.3461  -43.9109 C.2       1 UNK         0.5027 
     26 O          20.0572  -23.9078  -43.7374 O.2       1 UNK        -0.4969 
     27 C          22.5625  -26.4171  -45.9432 C.2       3 UNK         0.5005 
     28 O          23.6921  -26.7623  -46.2920 O.2       3 UNK        -0.5279 
     29 N          22.2777  -25.8848  -44.7398 N.am      4 UNK        -0.4463 
     30 CA         23.1701  -25.7553  -43.5778 C.3       4 UNK         0.0283 
     31 CB         24.3058  -24.7504  -43.8611 C.3       4 UNK        -0.1875 
     32 C          23.6892  -27.1153  -43.0609 C.2       4 UNK         0.4949 
     33 O          24.7680  -27.1822  -42.4706 O.2       4 UNK        -0.5039 
     34 N          22.9126  -28.1792  -43.3043 N.am      5 UNK        -0.4663 
     35 CA         23.2859  -29.5702  -43.0513 C.3       5 UNK         0.0242 
     36 CB         22.6579  -30.4450  -44.1493 C.3       5 UNK        -0.1982 
     37 C          22.8566  -30.0716  -41.6655 C.2       5 UNK         0.5017 
     38 O          23.3413  -31.1227  -41.2457 O.2       5 UNK        -0.5012 
     39 N          21.9585  -29.3390  -40.9877 N.am      6 UNK        -0.4439 
     40 CA         21.2777  -29.7092  -39.7371 C.3       6 UNK         0.0297 
     41 CB         20.4130  -28.5317  -39.2592 C.3       6 UNK        -0.2006 
     42 C          22.1783  -30.1911  -38.5851 C.2       6 UNK         0.4892 
     43 O          21.7235  -30.9991  -37.7756 O.2       6 UNK        -0.5089 
     44 N          23.4340  -29.7234  -38.5464 N.am      7 UNK        -0.4243 
     45 CA         24.4620  -30.1479  -37.5906 C.3       7 UNK         0.0196 
     46 CB         25.7244  -29.2959  -37.7988 C.3       7 UNK        -0.2007 
     47 C          24.8083  -31.6485  -37.6658 C.2       7 UNK         0.5020 
     48 O          25.2055  -32.2193  -36.6495 O.2       7 UNK        -0.5147 
     49 N          24.6461  -32.2563  -38.8487 N.am      8 UNK        -0.4734 
     50 CA         24.8192  -33.6925  -39.0817 C.3       8 UNK         0.0238 
     51 CB         25.8897  -33.9017  -40.1658 C.3       8 UNK        -0.1912 
     52 C          23.4997  -34.3595  -39.4999 C.2       8 UNK         0.5038 
     53 O          23.2457  -35.4951  -39.0971 O.2       8 UNK        -0.5046 
     54 N          22.6980  -33.6566  -40.3093 N.am      9 UNK        -0.4200 
     55 CA         21.4300  -34.1309  -40.8791 C.3       9 UNK         0.0839 
     56 C          20.2402  -34.1667  -39.8770 C.2       9 UNK         0.5513 
     57 N          20.2882  -33.4576  -38.7556 N.am      9 UNK        -0.7519 
     58 O          19.2585  -34.8655  -40.1120 O.2       9 UNK        -0.4960 
     59 C59        21.0919  -33.3261  -42.1625 C.3       10 UNK        -0.0876 
     60 S60        20.1879  -34.2846  -43.4213 S.3       10 UNK        -0.2414 
     61 C61        18.5649  -33.4617  -43.4221 C.3       10 UNK         0.0169 
     62 H62        16.8320  -21.8943  -40.4446 H         1 UNK         0.0903 
     63 H63        16.1818  -21.0193  -41.8324 H         1 UNK         0.0903 
     64 H64        15.1446  -22.1125  -40.9124 H         1 UNK         0.0903 
     65 H65        18.1404  -23.5975  -41.0838 H         1 UNK         0.3096 
     66 H66        17.2984  -25.5084  -43.1059 H         1 UNK         0.1121 
     67 H67        19.8481  -25.3751  -41.4193 H         1 UNK         0.0849 
     68 H68        18.4063  -26.2577  -41.0030 H         1 UNK         0.0849 
     69 H69        17.9992  -28.7711  -41.6920 H         1 UNK         0.0865 
     70 H70        17.2843  -27.9230  -43.0447 H         1 UNK         0.0865 
     71 H71        18.2337  -31.1169  -42.0652 H         1 UNK         0.1346 
     72 H72        19.0669  -32.6571  -45.9784 H         1 UNK         0.1412 
     73 H73        18.5623  -28.4368  -45.3748 H         1 UNK         0.1426 
     74 H74        18.3758  -30.7063  -47.9258 H         1 UNK         0.0716 
     75 H75        20.0764  -30.9317  -47.5950 H         1 UNK         0.0716 
     76 H76        20.9370  -28.5624  -45.9134 H         1 UNK         0.0695 
     77 H77        21.8803  -28.7378  -47.3628 H         1 UNK         0.0695 
     78 H78        21.7086  -26.3798  -47.9022 H         1 UNK         0.0983 
     79 H79        19.4443  -26.2960  -46.0991 H         1 UNK         0.3095 
     80 H80        19.1127  -22.7642  -46.1567 H         1 UNK         0.0454 
     81 H81        18.1335  -23.4034  -48.3650 H         1 UNK         0.0851 
     82 H82        17.4248  -24.8441  -47.6501 H         1 UNK         0.0851 
     83 H83        16.8883  -23.2426  -47.1394 H         1 UNK         0.0851 
     84 H84        17.3376  -24.6796  -45.1350 H         1 UNK         0.2976 
     85 H85        21.3265  -25.5788  -44.5753 H         1 UNK         0.3116 
     86 H86        22.5577  -25.3423  -42.7747 H         1 UNK         0.0646 
     87 H87        24.8788  -24.5423  -42.9567 H         1 UNK         0.0847 
     88 H88        23.9124  -23.7992  -44.2194 H         1 UNK         0.0847 
     89 H89        25.0051  -25.1280  -44.6074 H         1 UNK         0.0847 
     90 H90        22.0241  -28.0231  -43.7589 H         1 UNK         0.3040 
     91 H91        24.3720  -29.6708  -43.1137 H         1 UNK         0.1015 
     92 H92        22.9305  -30.0908  -45.1437 H         1 UNK         0.0786 
     93 H93        21.5684  -30.4614  -44.0852 H         1 UNK         0.0786 
     94 H94        23.0076  -31.4747  -44.0750 H         1 UNK         0.0786 
     95 H95        21.6312  -28.4949  -41.4363 H         1 UNK         0.3172 
     96 H96        20.6110  -30.5390  -39.9803 H         1 UNK         0.0595 
     97 H97        19.6228  -28.3022  -39.9709 H         1 UNK         0.0839 
     98 H98        21.0059  -27.6287  -39.1095 H         1 UNK         0.0839 
     99 H99        19.9241  -28.7614  -38.3111 H         1 UNK         0.0839 
    100 H100       23.7175  -29.0689  -39.2610 H         1 UNK         0.2998 
    101 H101       24.0773  -29.9541  -36.5871 H         1 UNK         0.0822 
    102 H102       25.5165  -28.2352  -37.6566 H         1 UNK         0.0787 
    103 H103       26.5025  -29.5701  -37.0849 H         1 UNK         0.0787 
    104 H104       26.1390  -29.4272  -38.7993 H         1 UNK         0.0787 
    105 H105       24.3034  -31.7048  -39.6295 H         1 UNK         0.3055 
    106 H106       25.1559  -34.1924  -38.1706 H         1 UNK         0.1106 
    107 H107       25.6138  -33.4221  -41.1060 H         1 UNK         0.0828 
    108 H108       26.8517  -33.4955  -39.8532 H         1 UNK         0.0828 
    109 H109       26.0375  -34.9631  -40.3701 H         1 UNK         0.0828 
    110 H110       22.9868  -32.7273  -40.6041 H         1 UNK         0.2931 
    111 H111       21.6049  -35.1669  -41.1770 H         1 UNK         0.0412 
    112 H112       19.5105  -33.5063  -38.1170 H         1 UNK         0.3472 
    113 H113       21.0683  -32.8499  -38.5408 H         1 UNK         0.3472 
    114 H114       22.0146  -33.0224  -42.6562 H         1 UNK         0.0970 
    115 H115       20.5739  -32.3963  -41.9233 H         1 UNK         0.0970 
    116 H116       18.1575  -33.4747  -42.4099 H         1 UNK         0.0612 
    117 H117       17.8778  -34.0476  -44.0340 H         1 UNK         0.0612 
@<TRIPOS>BOND
     1    1    2 1    
     2    1   62 1    
     3    1   63 1    
     4    1   64 1    
     5    2    3 2    
     6    2    4 am   BACKBONE|DICT|INTERRES
     7    4    5 1    
     8    4   65 1    
     9    5    6 1    
    10    5   25 1    
    11    5   66 1    
    12    6    7 1    
    13    6   67 1    
    14    6   68 1    
    15    7    8 1    
    16    8    9 1    
    17    8   69 1    
    18    8   70 1    
    19    9   10 ar   
    20    9   14 ar   
    21   10   11 ar   
    22   10   71 1    
    23   11   12 ar   
    24   11   61 1    
    25   12   13 ar   
    26   12   72 1    
    27   13   14 ar   
    28   13   15 1    
    29   14   73 1    
    30   15   16 1    
    31   15   74 1    
    32   15   75 1    
    33   16   17 1    
    34   17   18 1    
    35   17   76 1    
    36   17   77 1    
    37   18   19 1    
    38   18   27 1    
    39   18   78 1    
    40   19   20 am   BACKBONE|DICT|INTERRES
    41   19   79 1    
    42   20   21 2    
    43   20   22 1    
    44   22   23 1    
    45   22   24 1    
    46   22   80 1    
    47   23   81 1    
    48   23   82 1    
    49   23   83 1    
    50   24   25 am   BACKBONE|DICT|INTERRES
    51   24   84 1    
    52   25   26 2    
    53   27   28 2    
    54   27   29 am   BACKBONE|DICT|INTERRES
    55   29   30 1    
    56   29   85 1    
    57   30   31 1    
    58   30   32 1    
    59   30   86 1    
    60   31   87 1    
    61   31   88 1    
    62   31   89 1    
    63   32   33 2    
    64   32   34 am   BACKBONE|DICT|INTERRES
    65   34   35 1    
    66   34   90 1    
    67   35   36 1    
    68   35   37 1    
    69   35   91 1    
    70   36   92 1    
    71   36   93 1    
    72   36   94 1    
    73   37   38 2    
    74   37   39 am   BACKBONE|DICT|INTERRES
    75   39   40 1    
    76   39   95 1    
    77   40   41 1    
    78   40   42 1    
    79   40   96 1    
    80   41   97 1    
    81   41   98 1    
    82   41   99 1    
    83   42   43 2    
    84   42   44 am   BACKBONE|DICT|INTERRES
    85   44   45 1    
    86   44  100 1    
    87   45   46 1    
    88   45   47 1    
    89   45  101 1    
    90   46  102 1    
    91   46  103 1    
    92   46  104 1    
    93   47   48 2    
    94   47   49 am   BACKBONE|DICT|INTERRES
    95   49   50 1    
    96   49  105 1    
    97   50   51 1    
    98   50   52 1    
    99   50  106 1    
   100   51  107 1    
   101   51  108 1    
   102   51  109 1    
   103   52   53 2    
   104   52   54 am   BACKBONE|DICT|INTERRES
   105   54   55 1    
   106   54  110 1    
   107   55   56 1    
   108   55   59 1    
   109   55  111 1    
   110   56   57 am   BACKBONE|DICT|INTERRES
   111   56   58 2    
   112   57  112 1    
   113   57  113 1    
   114   59   60 1    
   115   59  114 1    
   116   59  115 1    
   117   60   61 1    
   118   61  116 1    
   119   61  117 1    
@<TRIPOS>SUBSTRUCTURE
     1 UNK         1 GROUP             0       ****    0 ROOT    
