@<TRIPOS>MOLECULE
3R8
117   119    1
SMALL
USER_CHARGES


@<TRIPOS>ATOM
      1 CA         15.4947  -24.6130  -46.1812 C.3       0 UNK        -0.2013 
      2 C          16.8488  -25.2022  -45.8202 C.2       0 UNK         0.4866 
      3 O          16.9909  -25.7985  -44.7528 O.2       0 UNK        -0.5176 
      4 N          17.8544  -25.0257  -46.6914 N.am      1 UNK        -0.4884 
      5 CA         19.2279  -25.5666  -46.6053 C.3       1 UNK         0.0853 
      6 C6         19.2673  -27.1221  -46.5407 C.3       10 UNK        -0.0849 
      7 S7         18.4190  -27.9568  -47.9260 S.3       10 UNK        -0.2776 
      8 C8         16.8801  -28.5787  -47.1560 C.3       10 UNK         0.0316 
      9 C9         17.1107  -29.4474  -45.9223 C.ar      10 UNK        -0.0863 
     10 C10        17.9386  -30.5709  -45.9929 C.ar      10 UNK        -0.1009 
     11 C11        18.1425  -31.3773  -44.8700 C.ar      10 UNK        -0.0712 
     12 C12        17.4915  -31.0686  -43.6724 C.ar      10 UNK        -0.0894 
     13 C13        16.6563  -29.9498  -43.5862 C.ar      10 UNK        -0.0745 
     14 C14        16.4756  -29.1399  -44.7130 C.ar      10 UNK        -0.0972 
     15 C15        15.9235  -29.6405  -42.2857 C.3       10 UNK         0.0209 
     16 S16        17.0587  -29.2585  -40.9113 S.3       10 UNK        -0.2568 
     17 C17        17.6028  -27.5638  -41.3162 C.3       10 UNK        -0.0983 
     18 CA         18.9103  -27.5204  -42.1506 C.3       3 UNK         0.0876 
     19 N          19.1140  -26.1928  -42.7371 N.am      3 UNK        -0.4424 
     20 C          19.8345  -25.1489  -42.2892 C.2       2 UNK         0.4918 
     21 O          20.4485  -25.1374  -41.2212 O.2       2 UNK        -0.4875 
     22 CA         19.8478  -23.8868  -43.1879 C.3       2 UNK         0.0481 
     23 CB         21.1716  -23.0981  -43.1202 C.3       2 UNK        -0.1831 
     24 N          19.4562  -24.1717  -44.5754 N.am      2 UNK        -0.4498 
     25 C          20.0753  -24.9869  -45.4448 C.2       1 UNK         0.5027 
     26 O          21.2458  -25.3488  -45.3220 O.2       1 UNK        -0.4969 
     27 C          20.1686  -28.0876  -41.4542 C.2       3 UNK         0.5005 
     28 O          21.1251  -28.4573  -42.1380 O.2       3 UNK        -0.5279 
     29 N          20.1582  -28.1200  -40.1136 N.am      4 UNK        -0.4463 
     30 CA         21.2042  -28.6745  -39.2513 C.3       4 UNK         0.0283 
     31 CB         20.7369  -28.6180  -37.7888 C.3       4 UNK        -0.1875 
     32 C          22.5973  -28.0349  -39.3975 C.2       4 UNK         0.4949 
     33 O          23.5762  -28.6552  -38.9806 O.2       4 UNK        -0.5039 
     34 N          22.6888  -26.8442  -40.0089 N.am      5 UNK        -0.4663 
     35 CA         23.9583  -26.2063  -40.3714 C.3       5 UNK         0.0242 
     36 CB         23.6933  -24.7866  -40.8894 C.3       5 UNK        -0.1982 
     37 C          24.7691  -27.0097  -41.4060 C.2       5 UNK         0.5017 
     38 O          25.9949  -26.8937  -41.4218 O.2       5 UNK        -0.5012 
     39 N          24.0990  -27.8483  -42.2123 N.am      6 UNK        -0.4439 
     40 CA         24.7132  -28.7824  -43.1603 C.3       6 UNK         0.0297 
     41 CB         23.7019  -29.0908  -44.2808 C.3       6 UNK        -0.2006 
     42 C          25.2276  -30.0590  -42.4593 C.2       6 UNK         0.4892 
     43 O          24.9026  -31.1666  -42.8891 O.2       6 UNK        -0.5089 
     44 N          26.0069  -29.8812  -41.3802 N.am      7 UNK        -0.4243 
     45 CA         26.6033  -30.9135  -40.5195 C.3       7 UNK         0.0196 
     46 CB         27.7617  -31.6170  -41.2578 C.3       7 UNK        -0.2007 
     47 C          25.5581  -31.9030  -39.9655 C.2       7 UNK         0.5020 
     48 O          25.7128  -33.1156  -40.1155 O.2       7 UNK        -0.5147 
     49 N          24.4762  -31.3530  -39.3944 N.am      8 UNK        -0.4734 
     50 CA         23.2591  -32.0194  -38.9029 C.3       8 UNK         0.0238 
     51 CB         23.5784  -33.1057  -37.8550 C.3       8 UNK        -0.1912 
     52 C          22.3264  -32.5553  -40.0089 C.2       8 UNK         0.5038 
     53 O          21.1835  -32.8924  -39.6992 O.2       8 UNK        -0.5046 
     54 N          22.7985  -32.6057  -41.2621 N.am      9 UNK        -0.4200 
     55 CA         22.0895  -33.1042  -42.4492 C.3       9 UNK         0.0839 
     56 C          21.6745  -34.6069  -42.3737 C.2       9 UNK         0.5513 
     57 N          22.3993  -35.4397  -41.6351 N.am      9 UNK        -0.7519 
     58 O          20.7051  -35.0348  -42.9945 O.2       9 UNK        -0.4960 
     59 C59        20.9564  -32.1387  -42.9017 C.3       10 UNK        -0.0876 
     60 S60        20.8005  -32.0898  -44.7206 S.3       10 UNK        -0.2414 
     61 C61        19.0666  -32.5804  -44.9643 C.3       10 UNK         0.0169 
     62 H62        15.1883  -23.8879  -45.4278 H         1 UNK         0.0903 
     63 H63        15.5115  -24.1126  -47.1492 H         1 UNK         0.0903 
     64 H64        14.7436  -25.4015  -46.2199 H         1 UNK         0.0903 
     65 H65        17.6682  -24.5031  -47.5372 H         1 UNK         0.3096 
     66 H66        19.7339  -25.2581  -47.5217 H         1 UNK         0.1121 
     67 H67        18.8655  -27.4775  -45.5916 H         1 UNK         0.0849 
     68 H68        20.3008  -27.4740  -46.5613 H         1 UNK         0.0849 
     69 H69        16.2330  -27.7349  -46.9196 H         1 UNK         0.0865 
     70 H70        16.3385  -29.1684  -47.8966 H         1 UNK         0.0865 
     71 H71        18.4362  -30.8115  -46.9226 H         1 UNK         0.1346 
     72 H72        17.6354  -31.6959  -42.8034 H         1 UNK         0.1412 
     73 H73        15.8313  -28.2732  -44.6507 H         1 UNK         0.1426 
     74 H74        15.2180  -28.8184  -42.4155 H         1 UNK         0.0716 
     75 H75        15.3261  -30.5103  -42.0090 H         1 UNK         0.0716 
     76 H76        17.7034  -26.9885  -40.3946 H         1 UNK         0.0695 
     77 H77        16.7993  -27.0764  -41.8713 H         1 UNK         0.0695 
     78 H78        18.7584  -28.1723  -43.0120 H         1 UNK         0.0983 
     79 H79        18.5845  -26.0425  -43.5904 H         1 UNK         0.3095 
     80 H80        19.0670  -23.2388  -42.7877 H         1 UNK         0.0454 
     81 H81        21.1105  -22.1779  -43.7006 H         1 UNK         0.0851 
     82 H82        22.0132  -23.6745  -43.5019 H         1 UNK         0.0851 
     83 H83        21.4088  -22.8151  -42.0941 H         1 UNK         0.0851 
     84 H84        18.4967  -23.9442  -44.7993 H         1 UNK         0.2976 
     85 H85        19.3318  -27.7752  -39.6468 H         1 UNK         0.3116 
     86 H86        21.3086  -29.7222  -39.5350 H         1 UNK         0.0646 
     87 H87        19.8096  -29.1730  -37.6451 H         1 UNK         0.0847 
     88 H88        21.4800  -29.0579  -37.1220 H         1 UNK         0.0847 
     89 H89        20.5714  -27.5917  -37.4586 H         1 UNK         0.0847 
     90 H90        21.8396  -26.3914  -40.3338 H         1 UNK         0.3040 
     91 H91        24.5644  -26.1342  -39.4656 H         1 UNK         0.1015 
     92 H92        23.1381  -24.8093  -41.8259 H         1 UNK         0.0786 
     93 H93        24.6286  -24.2576  -41.0773 H         1 UNK         0.0786 
     94 H94        23.1226  -24.1969  -40.1716 H         1 UNK         0.0786 
     95 H95        23.0900  -27.9208  -42.1068 H         1 UNK         0.3172 
     96 H96        25.5771  -28.2990  -43.6208 H         1 UNK         0.0595 
     97 H97        22.8278  -29.6207  -43.9004 H         1 UNK         0.0839 
     98 H98        24.1504  -29.7185  -45.0519 H         1 UNK         0.0839 
     99 H99        23.3535  -28.1791  -44.7666 H         1 UNK         0.0839 
    100 H100       26.2036  -28.9202  -41.1202 H         1 UNK         0.2998 
    101 H101       27.0248  -30.3964  -39.6561 H         1 UNK         0.0822 
    102 H102       28.2691  -32.3269  -40.6033 H         1 UNK         0.0787 
    103 H103       27.4088  -32.1712  -42.1284 H         1 UNK         0.0787 
    104 H104       28.5087  -30.8998  -41.5978 H         1 UNK         0.0787 
    105 H105       24.4318  -30.3368  -39.3432 H         1 UNK         0.3055 
    106 H106       22.6932  -31.2441  -38.3859 H         1 UNK         0.1106 
    107 H107       22.6644  -33.4667  -37.3816 H         1 UNK         0.0828 
    108 H108       24.0711  -33.9720  -38.2966 H         1 UNK         0.0828 
    109 H109       24.2204  -32.7190  -37.0637 H         1 UNK         0.0828 
    110 H110       23.7486  -32.2996  -41.4342 H         1 UNK         0.2931 
    111 H111       22.8599  -33.0822  -43.2209 H         1 UNK         0.0412 
    112 H112       22.1384  -36.4121  -41.5863 H         1 UNK         0.3472 
    113 H113       23.2050  -35.1050  -41.1298 H         1 UNK         0.3472 
    114 H114       21.1793  -31.1192  -42.5846 H         1 UNK         0.0970 
    115 H115       20.0088  -32.3926  -42.4245 H         1 UNK         0.0970 
    116 H116       18.9696  -33.0386  -45.9496 H         1 UNK         0.0612 
    117 H117       18.7845  -33.3498  -44.2440 H         1 UNK         0.0612 
@<TRIPOS>BOND
     1    1    2 1    
     2    1   62 1    
     3    1   63 1    
     4    1   64 1    
     5    2    3 2    
     6    2    4 am   BACKBONE|DICT|INTERRES
     7    4    5 1    
     8    4   65 1    
     9    5    6 1    
    10    5   25 1    
    11    5   66 1    
    12    6    7 1    
    13    6   67 1    
    14    6   68 1    
    15    7    8 1    
    16    8    9 1    
    17    8   69 1    
    18    8   70 1    
    19    9   10 ar   
    20    9   14 ar   
    21   10   11 ar   
    22   10   71 1    
    23   11   12 ar   
    24   11   61 1    
    25   12   13 ar   
    26   12   72 1    
    27   13   14 ar   
    28   13   15 1    
    29   14   73 1    
    30   15   16 1    
    31   15   74 1    
    32   15   75 1    
    33   16   17 1    
    34   17   18 1    
    35   17   76 1    
    36   17   77 1    
    37   18   19 1    
    38   18   27 1    
    39   18   78 1    
    40   19   20 am   BACKBONE|DICT|INTERRES
    41   19   79 1    
    42   20   21 2    
    43   20   22 1    
    44   22   23 1    
    45   22   24 1    
    46   22   80 1    
    47   23   81 1    
    48   23   82 1    
    49   23   83 1    
    50   24   25 am   BACKBONE|DICT|INTERRES
    51   24   84 1    
    52   25   26 2    
    53   27   28 2    
    54   27   29 am   BACKBONE|DICT|INTERRES
    55   29   30 1    
    56   29   85 1    
    57   30   31 1    
    58   30   32 1    
    59   30   86 1    
    60   31   87 1    
    61   31   88 1    
    62   31   89 1    
    63   32   33 2    
    64   32   34 am   BACKBONE|DICT|INTERRES
    65   34   35 1    
    66   34   90 1    
    67   35   36 1    
    68   35   37 1    
    69   35   91 1    
    70   36   92 1    
    71   36   93 1    
    72   36   94 1    
    73   37   38 2    
    74   37   39 am   BACKBONE|DICT|INTERRES
    75   39   40 1    
    76   39   95 1    
    77   40   41 1    
    78   40   42 1    
    79   40   96 1    
    80   41   97 1    
    81   41   98 1    
    82   41   99 1    
    83   42   43 2    
    84   42   44 am   BACKBONE|DICT|INTERRES
    85   44   45 1    
    86   44  100 1    
    87   45   46 1    
    88   45   47 1    
    89   45  101 1    
    90   46  102 1    
    91   46  103 1    
    92   46  104 1    
    93   47   48 2    
    94   47   49 am   BACKBONE|DICT|INTERRES
    95   49   50 1    
    96   49  105 1    
    97   50   51 1    
    98   50   52 1    
    99   50  106 1    
   100   51  107 1    
   101   51  108 1    
   102   51  109 1    
   103   52   53 2    
   104   52   54 am   BACKBONE|DICT|INTERRES
   105   54   55 1    
   106   54  110 1    
   107   55   56 1    
   108   55   59 1    
   109   55  111 1    
   110   56   57 am   BACKBONE|DICT|INTERRES
   111   56   58 2    
   112   57  112 1    
   113   57  113 1    
   114   59   60 1    
   115   59  114 1    
   116   59  115 1    
   117   60   61 1    
   118   61  116 1    
   119   61  117 1    
@<TRIPOS>SUBSTRUCTURE
     1 UNK         1 GROUP             0       ****    0 ROOT    
