@<TRIPOS>MOLECULE
3R8
117   119    1
SMALL
USER_CHARGES


@<TRIPOS>ATOM
      1 CA         23.2277  -26.9847  -46.8939 C.3       0 UNK        -0.2013 
      2 C          22.2659  -27.5979  -47.9082 C.2       0 UNK         0.4866 
      3 O          22.3575  -27.2777  -49.0914 O.2       0 UNK        -0.5176 
      4 N          21.3432  -28.4888  -47.5159 N.am      1 UNK        -0.4884 
      5 CA         21.0223  -28.9212  -46.1491 C.3       1 UNK         0.0853 
      6 C6         20.0967  -30.1660  -46.1377 C.3       10 UNK        -0.0849 
      7 S7         18.6357  -30.0137  -47.2290 S.3       10 UNK        -0.2776 
      8 C8         17.4884  -31.2157  -46.4853 C.3       10 UNK         0.0316 
      9 C9         17.0044  -30.7994  -45.1016 C.ar      10 UNK        -0.0863 
     10 C10        17.1187  -31.6865  -44.0292 C.ar      10 UNK        -0.1009 
     11 C11        16.6441  -31.3365  -42.7624 C.ar      10 UNK        -0.0712 
     12 C12        16.0457  -30.0876  -42.5758 C.ar      10 UNK        -0.0894 
     13 C13        15.9214  -29.1839  -43.6402 C.ar      10 UNK        -0.0745 
     14 C14        16.4020  -29.5537  -44.9000 C.ar      10 UNK        -0.0972 
     15 C15        15.2262  -27.8284  -43.4960 C.3       10 UNK         0.0209 
     16 S16        15.0449  -27.2009  -41.7902 S.3       10 UNK        -0.2568 
     17 C17        16.6327  -26.4265  -41.3115 C.3       10 UNK        -0.0983 
     18 CA         17.9671  -27.0742  -41.8050 C.3       3 UNK         0.0876 
     19 N          18.2191  -26.8945  -43.2437 N.am      3 UNK        -0.4424 
     20 C          18.4273  -25.7362  -43.8889 C.2       2 UNK         0.4918 
     21 O          18.3252  -24.6312  -43.3546 O.2       2 UNK        -0.4875 
     22 CA         18.8460  -25.8151  -45.3748 C.3       2 UNK         0.0481 
     23 CB         19.8120  -24.6713  -45.7489 C.3       2 UNK        -0.1831 
     24 N          19.4184  -27.0950  -45.8223 N.am      2 UNK        -0.4498 
     25 C          20.4601  -27.7626  -45.3021 C.2       1 UNK         0.5027 
     26 O          21.0051  -27.4705  -44.2385 O.2       1 UNK        -0.4969 
     27 C          19.1822  -26.6293  -40.9414 C.2       3 UNK         0.5005 
     28 O          19.0167  -26.3673  -39.7477 O.2       3 UNK        -0.5279 
     29 N          20.3826  -26.5326  -41.5355 N.am      4 UNK        -0.4463 
     30 CA         21.5895  -26.0404  -40.8741 C.3       4 UNK         0.0283 
     31 CB         22.5890  -25.5525  -41.9354 C.3       4 UNK        -0.1875 
     32 C          22.2217  -27.1272  -39.9970 C.2       4 UNK         0.4949 
     33 O          22.4065  -28.2546  -40.4595 O.2       4 UNK        -0.5039 
     34 N          22.6032  -26.7545  -38.7687 N.am      5 UNK        -0.4663 
     35 CA         23.2812  -27.6330  -37.8078 C.3       5 UNK         0.0242 
     36 CB         23.3199  -26.9517  -36.4308 C.3       5 UNK        -0.1982 
     37 C          24.6981  -28.0383  -38.2497 C.2       5 UNK         0.5017 
     38 O          25.1434  -29.1340  -37.9110 O.2       5 UNK        -0.5012 
     39 N          25.3624  -27.1630  -39.0188 N.am      6 UNK        -0.4439 
     40 CA         26.6640  -27.4165  -39.6417 C.3       6 UNK         0.0297 
     41 CB         27.2487  -26.0938  -40.1624 C.3       6 UNK        -0.2006 
     42 C          26.5909  -28.4563  -40.7744 C.2       6 UNK         0.4892 
     43 O          27.5437  -29.2147  -40.9556 O.2       6 UNK        -0.5089 
     44 N          25.4665  -28.4780  -41.5055 N.am      7 UNK        -0.4243 
     45 CA         25.1736  -29.4760  -42.5366 C.3       7 UNK         0.0196 
     46 CB         24.1613  -28.8989  -43.5374 C.3       7 UNK        -0.2007 
     47 C          24.6352  -30.7823  -41.9336 C.2       7 UNK         0.5020 
     48 O          24.8270  -31.8413  -42.5303 O.2       7 UNK        -0.5147 
     49 N          23.9532  -30.6782  -40.7823 N.am      8 UNK        -0.4734 
     50 CA         23.3434  -31.7599  -39.9997 C.3       8 UNK         0.0238 
     51 CB         24.4339  -32.6481  -39.3652 C.3       8 UNK        -0.1912 
     52 C          22.3100  -32.5585  -40.8145 C.2       8 UNK         0.5038 
     53 O          22.3032  -33.7898  -40.7643 O.2       8 UNK        -0.5046 
     54 N          21.4853  -31.8274  -41.5780 N.am      9 UNK        -0.4200 
     55 CA         20.4982  -32.3428  -42.5425 C.3       9 UNK         0.0839 
     56 C          21.1109  -33.0113  -43.8113 C.2       9 UNK         0.5513 
     57 N          22.4168  -32.9512  -44.0454 N.am      9 UNK        -0.7519 
     58 O          20.3781  -33.5567  -44.6318 O.2       9 UNK        -0.4960 
     59 C59        19.3946  -33.2169  -41.8773 C.3       10 UNK        -0.0876 
     60 S60        18.3369  -32.2473  -40.7492 S.3       10 UNK        -0.2414 
     61 C61        16.7295  -32.3197  -41.6026 C.3       10 UNK         0.0169 
     62 H62        22.7278  -26.2275  -46.2909 H         1 UNK         0.0903 
     63 H63        23.6480  -27.7423  -46.2358 H         1 UNK         0.0903 
     64 H64        24.0605  -26.5027  -47.4055 H         1 UNK         0.0903 
     65 H65        20.7340  -28.8797  -48.2220 H         1 UNK         0.3096 
     66 H66        21.9553  -29.2261  -45.6727 H         1 UNK         0.1121 
     67 H67        19.7763  -30.3958  -45.1203 H         1 UNK         0.0849 
     68 H68        20.6615  -31.0396  -46.4681 H         1 UNK         0.0849 
     69 H69        16.6223  -31.3261  -47.1391 H         1 UNK         0.0865 
     70 H70        17.9754  -32.1920  -46.4539 H         1 UNK         0.0865 
     71 H71        17.5608  -32.6592  -44.1895 H         1 UNK         0.1346 
     72 H72        15.6617  -29.8367  -41.5976 H         1 UNK         0.1412 
     73 H73        16.2928  -28.8756  -45.7358 H         1 UNK         0.1426 
     74 H74        15.7118  -27.0706  -44.1104 H         1 UNK         0.0716 
     75 H75        14.2219  -27.9379  -43.9069 H         1 UNK         0.0716 
     76 H76        16.5938  -26.4231  -40.2218 H         1 UNK         0.0695 
     77 H77        16.5897  -25.3749  -41.5929 H         1 UNK         0.0695 
     78 H78        17.8933  -28.1492  -41.6386 H         1 UNK         0.0983 
     79 H79        18.3254  -27.7475  -43.7731 H         1 UNK         0.3095 
     80 H80        17.9299  -25.6783  -45.9505 H         1 UNK         0.0454 
     81 H81        20.0873  -24.7112  -46.8028 H         1 UNK         0.0851 
     82 H82        20.7296  -24.7130  -45.1609 H         1 UNK         0.0851 
     83 H83        19.3578  -23.6951  -45.5748 H         1 UNK         0.0851 
     84 H84        19.0343  -27.4621  -46.6834 H         1 UNK         0.2976 
     85 H85        20.4871  -26.8283  -42.5027 H         1 UNK         0.3116 
     86 H86        21.3201  -25.1862  -40.2490 H         1 UNK         0.0646 
     87 H87        22.1578  -24.7603  -42.5477 H         1 UNK         0.0847 
     88 H88        23.4901  -25.1488  -41.4723 H         1 UNK         0.0847 
     89 H89        22.8964  -26.3557  -42.6046 H         1 UNK         0.0847 
     90 H90        22.4083  -25.8112  -38.4628 H         1 UNK         0.3040 
     91 H91        22.6946  -28.5505  -37.7202 H         1 UNK         0.1015 
     92 H92        23.8775  -26.0146  -36.4572 H         1 UNK         0.0786 
     93 H93        23.7987  -27.5949  -35.6909 H         1 UNK         0.0786 
     94 H94        22.3153  -26.7356  -36.0666 H         1 UNK         0.0786 
     95 H95        24.9210  -26.2770  -39.2166 H         1 UNK         0.3172 
     96 H96        27.3361  -27.8074  -38.8745 H         1 UNK         0.0595 
     97 H97        26.6144  -25.6407  -40.9255 H         1 UNK         0.0839 
     98 H98        28.2312  -26.2524  -40.6093 H         1 UNK         0.0839 
     99 H99        27.3756  -25.3707  -39.3566 H         1 UNK         0.0839 
    100 H100       24.7243  -27.8354  -41.2721 H         1 UNK         0.2998 
    101 H101       26.0936  -29.7089  -43.0776 H         1 UNK         0.0822 
    102 H102       24.0056  -29.5905  -44.3659 H         1 UNK         0.0787 
    103 H103       23.1896  -28.7205  -43.0755 H         1 UNK         0.0787 
    104 H104       24.5128  -27.9573  -43.9590 H         1 UNK         0.0787 
    105 H105       23.7507  -29.7415  -40.4488 H         1 UNK         0.3055 
    106 H106       22.7904  -31.2836  -39.1886 H         1 UNK         0.1106 
    107 H107       25.1342  -32.0533  -38.7787 H         1 UNK         0.0828 
    108 H108       23.9952  -33.3872  -38.6939 H         1 UNK         0.0828 
    109 H109       25.0040  -33.1908  -40.1195 H         1 UNK         0.0828 
    110 H110       21.5877  -30.8227  -41.5517 H         1 UNK         0.2931 
    111 H111       20.0054  -31.4520  -42.9327 H         1 UNK         0.0412 
    112 H112       23.0579  -32.5337  -43.3816 H         1 UNK         0.3472 
    113 H113       22.7801  -33.3819  -44.8805 H         1 UNK         0.3472 
    114 H114       19.8312  -34.0435  -41.3170 H         1 UNK         0.0970 
    115 H115       18.7654  -33.6978  -42.6253 H         1 UNK         0.0970 
    116 H116       15.9463  -32.1014  -40.8751 H         1 UNK         0.0612 
    117 H117       16.5356  -33.3353  -41.9505 H         1 UNK         0.0612 
@<TRIPOS>BOND
     1    1    2 1    
     2    1   62 1    
     3    1   63 1    
     4    1   64 1    
     5    2    3 2    
     6    2    4 am   BACKBONE|DICT|INTERRES
     7    4    5 1    
     8    4   65 1    
     9    5    6 1    
    10    5   25 1    
    11    5   66 1    
    12    6    7 1    
    13    6   67 1    
    14    6   68 1    
    15    7    8 1    
    16    8    9 1    
    17    8   69 1    
    18    8   70 1    
    19    9   10 ar   
    20    9   14 ar   
    21   10   11 ar   
    22   10   71 1    
    23   11   12 ar   
    24   11   61 1    
    25   12   13 ar   
    26   12   72 1    
    27   13   14 ar   
    28   13   15 1    
    29   14   73 1    
    30   15   16 1    
    31   15   74 1    
    32   15   75 1    
    33   16   17 1    
    34   17   18 1    
    35   17   76 1    
    36   17   77 1    
    37   18   19 1    
    38   18   27 1    
    39   18   78 1    
    40   19   20 am   BACKBONE|DICT|INTERRES
    41   19   79 1    
    42   20   21 2    
    43   20   22 1    
    44   22   23 1    
    45   22   24 1    
    46   22   80 1    
    47   23   81 1    
    48   23   82 1    
    49   23   83 1    
    50   24   25 am   BACKBONE|DICT|INTERRES
    51   24   84 1    
    52   25   26 2    
    53   27   28 2    
    54   27   29 am   BACKBONE|DICT|INTERRES
    55   29   30 1    
    56   29   85 1    
    57   30   31 1    
    58   30   32 1    
    59   30   86 1    
    60   31   87 1    
    61   31   88 1    
    62   31   89 1    
    63   32   33 2    
    64   32   34 am   BACKBONE|DICT|INTERRES
    65   34   35 1    
    66   34   90 1    
    67   35   36 1    
    68   35   37 1    
    69   35   91 1    
    70   36   92 1    
    71   36   93 1    
    72   36   94 1    
    73   37   38 2    
    74   37   39 am   BACKBONE|DICT|INTERRES
    75   39   40 1    
    76   39   95 1    
    77   40   41 1    
    78   40   42 1    
    79   40   96 1    
    80   41   97 1    
    81   41   98 1    
    82   41   99 1    
    83   42   43 2    
    84   42   44 am   BACKBONE|DICT|INTERRES
    85   44   45 1    
    86   44  100 1    
    87   45   46 1    
    88   45   47 1    
    89   45  101 1    
    90   46  102 1    
    91   46  103 1    
    92   46  104 1    
    93   47   48 2    
    94   47   49 am   BACKBONE|DICT|INTERRES
    95   49   50 1    
    96   49  105 1    
    97   50   51 1    
    98   50   52 1    
    99   50  106 1    
   100   51  107 1    
   101   51  108 1    
   102   51  109 1    
   103   52   53 2    
   104   52   54 am   BACKBONE|DICT|INTERRES
   105   54   55 1    
   106   54  110 1    
   107   55   56 1    
   108   55   59 1    
   109   55  111 1    
   110   56   57 am   BACKBONE|DICT|INTERRES
   111   56   58 2    
   112   57  112 1    
   113   57  113 1    
   114   59   60 1    
   115   59  114 1    
   116   59  115 1    
   117   60   61 1    
   118   61  116 1    
   119   61  117 1    
@<TRIPOS>SUBSTRUCTURE
     1 UNK         1 GROUP             0       ****    0 ROOT    
