@<TRIPOS>MOLECULE
3R8
117   119    1
SMALL
USER_CHARGES


@<TRIPOS>ATOM
      1 CA         18.3362  -23.7867  -49.3398 C.3       0 UNK        -0.2013 
      2 C          17.4560  -23.3839  -48.1598 C.2       0 UNK         0.4866 
      3 O          16.5332  -22.5907  -48.3365 O.2       0 UNK        -0.5176 
      4 N          17.6968  -23.8913  -46.9458 N.am      1 UNK        -0.4884 
      5 CA         18.7733  -24.8018  -46.5604 C.3       1 UNK         0.0853 
      6 C6         18.3794  -26.2857  -46.7839 C.3       10 UNK        -0.0849 
      7 S7         19.8297  -27.3870  -46.8954 S.3       10 UNK        -0.2776 
      8 C8         19.0325  -29.0092  -47.1209 C.3       10 UNK         0.0316 
      9 C9         18.6371  -29.6500  -45.7964 C.ar      10 UNK        -0.0863 
     10 C10        19.5014  -30.5548  -45.1686 C.ar      10 UNK        -0.1009 
     11 C11        19.1218  -31.1902  -43.9822 C.ar      10 UNK        -0.0712 
     12 C12        17.8763  -30.9061  -43.4181 C.ar      10 UNK        -0.0894 
     13 C13        17.0212  -29.9749  -44.0121 C.ar      10 UNK        -0.0745 
     14 C14        17.3980  -29.3648  -45.2123 C.ar      10 UNK        -0.0972 
     15 C15        15.6993  -29.6230  -43.3442 C.3       10 UNK         0.0209 
     16 S16        15.9445  -28.9192  -41.6788 S.3       10 UNK        -0.2568 
     17 C17        16.8326  -27.3669  -42.0455 C.3       10 UNK        -0.0983 
     18 CA         18.3704  -27.4809  -41.8835 C.3       3 UNK         0.0876 
     19 N          19.0401  -26.3184  -42.4649 N.am      3 UNK        -0.4424 
     20 C          20.3619  -26.1545  -42.6005 C.2       2 UNK         0.4918 
     21 O          21.1980  -26.9868  -42.2446 O.2       2 UNK        -0.4875 
     22 CA         20.8016  -24.8498  -43.2930 C.3       2 UNK         0.0481 
     23 CB         22.3256  -24.6394  -43.2731 C.3       2 UNK        -0.1831 
     24 N          20.3421  -24.8372  -44.6825 N.am      2 UNK        -0.4498 
     25 C          19.1017  -24.5344  -45.0830 C.2       1 UNK         0.5027 
     26 O          18.2193  -24.1204  -44.3239 O.2       1 UNK        -0.4969 
     27 C          18.8059  -27.6769  -40.4168 C.2       3 UNK         0.5005 
     28 O          18.6058  -26.7746  -39.5997 O.2       3 UNK        -0.5279 
     29 N          19.4276  -28.8319  -40.1367 N.am      4 UNK        -0.4463 
     30 CA         20.0362  -29.2309  -38.8615 C.3       4 UNK         0.0283 
     31 CB         18.9730  -29.3484  -37.7489 C.3       4 UNK        -0.1875 
     32 C          21.2473  -28.3692  -38.4445 C.2       4 UNK         0.4949 
     33 O          21.5836  -28.3380  -37.2597 O.2       4 UNK        -0.5039 
     34 N          21.8900  -27.6940  -39.4079 N.am      5 UNK        -0.4663 
     35 CA         23.0295  -26.7998  -39.1829 C.3       5 UNK         0.0242 
     36 CB         22.5161  -25.3496  -39.0995 C.3       5 UNK        -0.1982 
     37 C          24.1332  -26.9661  -40.2437 C.2       5 UNK         0.5017 
     38 O          25.0508  -26.1450  -40.2863 O.2       5 UNK        -0.5012 
     39 N          24.0463  -28.0122  -41.0728 N.am      6 UNK        -0.4439 
     40 CA         24.9831  -28.3491  -42.1418 C.3       6 UNK         0.0297 
     41 CB         24.7720  -27.4121  -43.3472 C.3       6 UNK        -0.2006 
     42 C          24.7646  -29.8142  -42.5383 C.2       6 UNK         0.4892 
     43 O          23.8466  -30.4549  -42.0206 O.2       6 UNK        -0.5089 
     44 N          25.6032  -30.3111  -43.4586 N.am      7 UNK        -0.4243 
     45 CA         25.5598  -31.6585  -44.0394 C.3       7 UNK         0.0196 
     46 CB         24.3257  -31.7985  -44.9638 C.3       7 UNK        -0.2007 
     47 C          25.6685  -32.7581  -42.9621 C.2       7 UNK         0.5020 
     48 O          26.4739  -32.6217  -42.0388 O.2       7 UNK        -0.5147 
     49 N          24.8758  -33.8280  -43.0967 N.am      8 UNK        -0.4734 
     50 CA         24.8065  -34.9265  -42.1314 C.3       8 UNK         0.0238 
     51 CB         24.2846  -36.1865  -42.8421 C.3       8 UNK        -0.1912 
     52 C          23.9301  -34.6029  -40.9085 C.2       8 UNK         0.5038 
     53 O          24.1328  -35.2145  -39.8584 O.2       8 UNK        -0.5046 
     54 N          22.9616  -33.6893  -41.0646 N.am      9 UNK        -0.4200 
     55 CA         22.0068  -33.3125  -40.0121 C.3       9 UNK         0.0839 
     56 C          22.5600  -32.2959  -38.9755 C.2       9 UNK         0.5513 
     57 N          23.5179  -31.4485  -39.3264 N.am      9 UNK        -0.7519 
     58 O          22.1192  -32.2894  -37.8294 O.2       9 UNK        -0.4960 
     59 C59        20.6347  -32.8839  -40.5935 C.3       10 UNK        -0.0876 
     60 S60        20.7138  -31.4772  -41.7597 S.3       10 UNK        -0.2414 
     61 C61        20.0432  -32.1853  -43.2962 C.3       10 UNK         0.0169 
     62 H62        19.3067  -23.2957  -49.2755 H         1 UNK         0.0903 
     63 H63        18.4912  -24.8638  -49.3808 H         1 UNK         0.0903 
     64 H64        17.8726  -23.4875  -50.2797 H         1 UNK         0.0903 
     65 H65        17.1404  -23.5830  -46.1567 H         1 UNK         0.3096 
     66 H66        19.6639  -24.5586  -47.1439 H         1 UNK         0.1121 
     67 H67        17.8188  -26.3955  -47.7131 H         1 UNK         0.0849 
     68 H68        17.7099  -26.6310  -45.9950 H         1 UNK         0.0849 
     69 H69        18.1610  -28.9107  -47.7699 H         1 UNK         0.0865 
     70 H70        19.7253  -29.6634  -47.6526 H         1 UNK         0.0865 
     71 H71        20.4645  -30.7730  -45.6097 H         1 UNK         0.1346 
     72 H72        17.5847  -31.3882  -42.4946 H         1 UNK         0.1412 
     73 H73        16.7252  -28.6676  -45.6915 H         1 UNK         0.1426 
     74 H74        15.0924  -30.5256  -43.2607 H         1 UNK         0.0716 
     75 H75        15.1255  -28.9202  -43.9504 H         1 UNK         0.0716 
     76 H76        16.4348  -26.5805  -41.4012 H         1 UNK         0.0695 
     77 H77        16.5865  -27.0658  -43.0652 H         1 UNK         0.0695 
     78 H78        18.7111  -28.3405  -42.4636 H         1 UNK         0.0983 
     79 H79        18.4417  -25.5733  -42.8006 H         1 UNK         0.3095 
     80 H80        20.3460  -24.0199  -42.7487 H         1 UNK         0.0454 
     81 H81        22.5902  -23.6465  -43.6365 H         1 UNK         0.0851 
     82 H82        22.8364  -25.3677  -43.9007 H         1 UNK         0.0851 
     83 H83        22.7306  -24.7324  -42.2653 H         1 UNK         0.0851 
     84 H84        20.9778  -25.2342  -45.3605 H         1 UNK         0.2976 
     85 H85        19.5685  -29.4912  -40.8928 H         1 UNK         0.3116 
     86 H86        20.4355  -30.2306  -39.0252 H         1 UNK         0.0646 
     87 H87        18.5825  -28.3736  -37.4559 H         1 UNK         0.0847 
     88 H88        18.1330  -29.9665  -38.0657 H         1 UNK         0.0847 
     89 H89        19.3934  -29.8105  -36.8549 H         1 UNK         0.0847 
     90 H90        21.5371  -27.7270  -40.3602 H         1 UNK         0.3040 
     91 H91        23.5090  -27.0445  -38.2327 H         1 UNK         0.1015 
     92 H92        23.3322  -24.6452  -38.9335 H         1 UNK         0.0786 
     93 H93        21.8151  -25.2286  -38.2734 H         1 UNK         0.0786 
     94 H94        22.0035  -25.0524  -40.0140 H         1 UNK         0.0786 
     95 H95        23.3025  -28.6906  -40.9577 H         1 UNK         0.3172 
     96 H96        26.0032  -28.2472  -41.7664 H         1 UNK         0.0595 
     97 H97        23.7687  -27.5243  -43.7606 H         1 UNK         0.0839 
     98 H98        25.4808  -27.6220  -44.1485 H         1 UNK         0.0839 
     99 H99        24.9099  -26.3674  -43.0699 H         1 UNK         0.0839 
    100 H100       26.3540  -29.7202  -43.7870 H         1 UNK         0.2998 
    101 H101       26.4522  -31.7553  -44.6595 H         1 UNK         0.0822 
    102 H102       24.3542  -32.7279  -45.5337 H         1 UNK         0.0787 
    103 H103       23.3895  -31.7744  -44.4039 H         1 UNK         0.0787 
    104 H104       24.2901  -30.9873  -45.6912 H         1 UNK         0.0787 
    105 H105       24.2527  -33.8714  -43.8905 H         1 UNK         0.3055 
    106 H106       25.8132  -35.1374  -41.7623 H         1 UNK         0.1106 
    107 H107       24.9330  -36.4726  -43.6704 H         1 UNK         0.0828 
    108 H108       24.2472  -37.0340  -42.1558 H         1 UNK         0.0828 
    109 H109       23.2777  -36.0428  -43.2361 H         1 UNK         0.0828 
    110 H110       22.8969  -33.1750  -41.9305 H         1 UNK         0.2931 
    111 H111       21.8014  -34.2172  -39.4355 H         1 UNK         0.0412 
    112 H112       23.8859  -30.8103  -38.6406 H         1 UNK         0.3472 
    113 H113       23.7980  -31.3703  -40.2989 H         1 UNK         0.3472 
    114 H114       19.9458  -32.6222  -39.7882 H         1 UNK         0.0970 
    115 H115       20.1796  -33.7447  -41.0836 H         1 UNK         0.0970 
    116 H116       19.4787  -33.0958  -43.0938 H         1 UNK         0.0612 
    117 H117       20.8702  -32.4708  -43.9478 H         1 UNK         0.0612 
@<TRIPOS>BOND
     1    1    2 1    
     2    1   62 1    
     3    1   63 1    
     4    1   64 1    
     5    2    3 2    
     6    2    4 am   BACKBONE|DICT|INTERRES
     7    4    5 1    
     8    4   65 1    
     9    5    6 1    
    10    5   25 1    
    11    5   66 1    
    12    6    7 1    
    13    6   67 1    
    14    6   68 1    
    15    7    8 1    
    16    8    9 1    
    17    8   69 1    
    18    8   70 1    
    19    9   10 ar   
    20    9   14 ar   
    21   10   11 ar   
    22   10   71 1    
    23   11   12 ar   
    24   11   61 1    
    25   12   13 ar   
    26   12   72 1    
    27   13   14 ar   
    28   13   15 1    
    29   14   73 1    
    30   15   16 1    
    31   15   74 1    
    32   15   75 1    
    33   16   17 1    
    34   17   18 1    
    35   17   76 1    
    36   17   77 1    
    37   18   19 1    
    38   18   27 1    
    39   18   78 1    
    40   19   20 am   BACKBONE|DICT|INTERRES
    41   19   79 1    
    42   20   21 2    
    43   20   22 1    
    44   22   23 1    
    45   22   24 1    
    46   22   80 1    
    47   23   81 1    
    48   23   82 1    
    49   23   83 1    
    50   24   25 am   BACKBONE|DICT|INTERRES
    51   24   84 1    
    52   25   26 2    
    53   27   28 2    
    54   27   29 am   BACKBONE|DICT|INTERRES
    55   29   30 1    
    56   29   85 1    
    57   30   31 1    
    58   30   32 1    
    59   30   86 1    
    60   31   87 1    
    61   31   88 1    
    62   31   89 1    
    63   32   33 2    
    64   32   34 am   BACKBONE|DICT|INTERRES
    65   34   35 1    
    66   34   90 1    
    67   35   36 1    
    68   35   37 1    
    69   35   91 1    
    70   36   92 1    
    71   36   93 1    
    72   36   94 1    
    73   37   38 2    
    74   37   39 am   BACKBONE|DICT|INTERRES
    75   39   40 1    
    76   39   95 1    
    77   40   41 1    
    78   40   42 1    
    79   40   96 1    
    80   41   97 1    
    81   41   98 1    
    82   41   99 1    
    83   42   43 2    
    84   42   44 am   BACKBONE|DICT|INTERRES
    85   44   45 1    
    86   44  100 1    
    87   45   46 1    
    88   45   47 1    
    89   45  101 1    
    90   46  102 1    
    91   46  103 1    
    92   46  104 1    
    93   47   48 2    
    94   47   49 am   BACKBONE|DICT|INTERRES
    95   49   50 1    
    96   49  105 1    
    97   50   51 1    
    98   50   52 1    
    99   50  106 1    
   100   51  107 1    
   101   51  108 1    
   102   51  109 1    
   103   52   53 2    
   104   52   54 am   BACKBONE|DICT|INTERRES
   105   54   55 1    
   106   54  110 1    
   107   55   56 1    
   108   55   59 1    
   109   55  111 1    
   110   56   57 am   BACKBONE|DICT|INTERRES
   111   56   58 2    
   112   57  112 1    
   113   57  113 1    
   114   59   60 1    
   115   59  114 1    
   116   59  115 1    
   117   60   61 1    
   118   61  116 1    
   119   61  117 1    
@<TRIPOS>SUBSTRUCTURE
     1 UNK         1 GROUP             0       ****    0 ROOT    
