@<TRIPOS>MOLECULE
3R8
117   119    1
SMALL
USER_CHARGES


@<TRIPOS>ATOM
      1 CA         13.9364  -24.9203  -45.8126 C.3       0 UNK        -0.2013 
      2 C          15.1551  -25.7395  -45.4150 C.2       0 UNK         0.4866 
      3 O          16.2724  -25.2231  -45.4368 O.2       0 UNK        -0.5176 
      4 N          14.9489  -27.0139  -45.0589 N.am      1 UNK        -0.4884 
      5 CA         15.9918  -27.9418  -44.6097 C.3       1 UNK         0.0853 
      6 C6         15.4862  -29.4058  -44.5919 C.3       10 UNK        -0.0849 
      7 S7         15.2348  -30.0252  -46.2924 S.3       10 UNK        -0.2776 
      8 C8         16.7296  -31.0372  -46.5690 C.3       10 UNK         0.0316 
      9 C9         18.0098  -30.2955  -46.2057 C.ar      10 UNK        -0.0863 
     10 C10        18.7109  -30.6426  -45.0482 C.ar      10 UNK        -0.1009 
     11 C11        19.8534  -29.9349  -44.6688 C.ar      10 UNK        -0.0712 
     12 C12        20.3152  -28.8936  -45.4778 C.ar      10 UNK        -0.0894 
     13 C13        19.6289  -28.5373  -46.6451 C.ar      10 UNK        -0.0745 
     14 C14        18.4786  -29.2485  -47.0053 C.ar      10 UNK        -0.0972 
     15 C15        20.1340  -27.4085  -47.5382 C.3       10 UNK         0.0209 
     16 S16        19.9959  -25.7625  -46.7591 S.3       10 UNK        -0.2568 
     17 C17        21.5800  -25.6564  -45.8506 C.3       10 UNK        -0.0983 
     18 CA         21.4530  -25.3451  -44.3303 C.3       3 UNK         0.0876 
     19 N          20.2643  -25.9562  -43.7126 N.am      3 UNK        -0.4424 
     20 C          20.0000  -26.2043  -42.4168 C.2       2 UNK         0.4918 
     21 O          20.8179  -26.1083  -41.5011 O.2       2 UNK        -0.4875 
     22 CA         18.5490  -26.5702  -42.0579 C.3       2 UNK         0.0481 
     23 CB         17.8507  -25.3075  -41.5046 C.3       2 UNK        -0.1831 
     24 N          17.8226  -27.1292  -43.2054 N.am      2 UNK        -0.4498 
     25 C          16.5378  -27.5071  -43.2365 C.2       1 UNK         0.5027 
     26 O          15.7811  -27.5036  -42.2627 O.2       1 UNK        -0.4969 
     27 C          22.7857  -25.6505  -43.6141 C.2       3 UNK         0.5005 
     28 O          23.3050  -26.7617  -43.7450 O.2       3 UNK        -0.5279 
     29 N          23.2844  -24.6705  -42.8428 N.am      4 UNK        -0.4463 
     30 CA         24.5565  -24.6662  -42.1024 C.3       4 UNK         0.0283 
     31 CB         25.7353  -24.5842  -43.0957 C.3       4 UNK        -0.1875 
     32 C          24.7446  -25.8234  -41.0955 C.2       4 UNK         0.4949 
     33 O          25.8778  -26.0762  -40.6839 O.2       4 UNK        -0.5039 
     34 N          23.6525  -26.5163  -40.7339 N.am      5 UNK        -0.4663 
     35 CA         23.6165  -27.7783  -39.9855 C.3       5 UNK         0.0242 
     36 CB         24.0130  -27.5591  -38.5104 C.3       5 UNK        -0.1982 
     37 C          24.4258  -28.9028  -40.6699 C.2       5 UNK         0.5017 
     38 O          25.0766  -29.6922  -39.9817 O.2       5 UNK        -0.5012 
     39 N          24.3894  -28.9436  -42.0129 N.am      6 UNK        -0.4439 
     40 CA         25.0801  -29.9287  -42.8507 C.3       6 UNK         0.0297 
     41 CB         24.8265  -29.6083  -44.3326 C.3       6 UNK        -0.2006 
     42 C          24.6484  -31.3682  -42.5261 C.2       6 UNK         0.4892 
     43 O          23.4535  -31.6631  -42.5713 O.2       6 UNK        -0.5089 
     44 N          25.6298  -32.2187  -42.1860 N.am      7 UNK        -0.4243 
     45 CA         25.4686  -33.6019  -41.7116 C.3       7 UNK         0.0196 
     46 CB         24.9775  -34.5175  -42.8537 C.3       7 UNK        -0.2007 
     47 C          24.5873  -33.6904  -40.4475 C.2       7 UNK         0.5020 
     48 O          23.7228  -34.5628  -40.3530 O.2       7 UNK        -0.5147 
     49 N          24.7854  -32.7355  -39.5262 N.am      8 UNK        -0.4734 
     50 CA         24.0236  -32.4497  -38.3001 C.3       8 UNK         0.0238 
     51 CB         23.9675  -33.6623  -37.3500 C.3       8 UNK        -0.1912 
     52 C          22.6214  -31.8671  -38.5561 C.2       8 UNK         0.5038 
     53 O          22.2053  -30.9765  -37.8147 O.2       8 UNK        -0.5046 
     54 N          21.9352  -32.3476  -39.6010 N.am      9 UNK        -0.4200 
     55 CA         20.6199  -31.8834  -40.0675 C.3       9 UNK         0.0839 
     56 C          19.4462  -32.1771  -39.0808 C.2       9 UNK         0.5513 
     57 N          19.5715  -33.1580  -38.1941 N.am      9 UNK        -0.7519 
     58 O          18.4019  -31.5324  -39.1229 O.2       9 UNK        -0.4960 
     59 C59        20.6822  -30.4116  -40.5703 C.3       10 UNK        -0.0876 
     60 S60        19.5193  -30.0622  -41.9280 S.3       10 UNK        -0.2414 
     61 C61        20.5842  -30.2976  -43.3846 C.3       10 UNK         0.0169 
     62 H62        13.8319  -24.0597  -45.1525 H         1 UNK         0.0903 
     63 H63        14.0470  -24.5555  -46.8334 H         1 UNK         0.0903 
     64 H64        13.0170  -25.5031  -45.7586 H         1 UNK         0.0903 
     65 H65        14.0088  -27.3830  -45.0540 H         1 UNK         0.3096 
     66 H66        16.8105  -27.8721  -45.3273 H         1 UNK         0.1121 
     67 H67        16.1812  -30.0619  -44.0656 H         1 UNK         0.0849 
     68 H68        14.5439  -29.4810  -44.0462 H         1 UNK         0.0849 
     69 H69        16.6428  -31.9604  -45.9936 H         1 UNK         0.0865 
     70 H70        16.7682  -31.3366  -47.6174 H         1 UNK         0.0865 
     71 H71        18.3539  -31.4482  -44.4208 H         1 UNK         0.1346 
     72 H72        21.2094  -28.3623  -45.1879 H         1 UNK         0.1412 
     73 H73        17.9344  -28.9804  -47.9010 H         1 UNK         0.1426 
     74 H74        19.5632  -27.3840  -48.4677 H         1 UNK         0.0716 
     75 H75        21.1655  -27.6047  -47.8335 H         1 UNK         0.0716 
     76 H76        22.1760  -24.8762  -46.3274 H         1 UNK         0.0695 
     77 H77        22.1419  -26.5742  -46.0246 H         1 UNK         0.0695 
     78 H78        21.2786  -24.2704  -44.2508 H         1 UNK         0.0983 
     79 H79        19.4955  -26.0192  -44.3621 H         1 UNK         0.3095 
     80 H80        18.5820  -27.3262  -41.2722 H         1 UNK         0.0454 
     81 H81        18.4580  -24.8239  -40.7379 H         1 UNK         0.0851 
     82 H82        16.8947  -25.5398  -41.0371 H         1 UNK         0.0851 
     83 H83        17.6706  -24.5721  -42.2895 H         1 UNK         0.0851 
     84 H84        18.3709  -27.2793  -44.0395 H         1 UNK         0.2976 
     85 H85        22.7410  -23.8225  -42.7526 H         1 UNK         0.3116 
     86 H86        24.5586  -23.7512  -41.5083 H         1 UNK         0.0646 
     87 H87        25.8291  -25.4982  -43.6835 H         1 UNK         0.0847 
     88 H88        26.6821  -24.4342  -42.5754 H         1 UNK         0.0847 
     89 H89        25.6160  -23.7509  -43.7878 H         1 UNK         0.0847 
     90 H90        22.7584  -26.2238  -41.1209 H         1 UNK         0.3040 
     91 H91        22.5758  -28.1041  -39.9976 H         1 UNK         0.1015 
     92 H92        25.0643  -27.2888  -38.4083 H         1 UNK         0.0786 
     93 H93        23.8520  -28.4662  -37.9260 H         1 UNK         0.0786 
     94 H94        23.4162  -26.7704  -38.0524 H         1 UNK         0.0786 
     95 H95        23.8718  -28.2212  -42.5073 H         1 UNK         0.3172 
     96 H96        26.1499  -29.8254  -42.6584 H         1 UNK         0.0595 
     97 H97        25.3282  -30.3277  -44.9811 H         1 UNK         0.0839 
     98 H98        25.2017  -28.6188  -44.5946 H         1 UNK         0.0839 
     99 H99        23.7630  -29.6364  -44.5741 H         1 UNK         0.0839 
    100 H100       26.5772  -31.8657  -42.1776 H         1 UNK         0.2998 
    101 H101       26.4600  -33.9476  -41.4147 H         1 UNK         0.0822 
    102 H102       24.9646  -35.5618  -42.5392 H         1 UNK         0.0787 
    103 H103       23.9660  -34.2619  -43.1717 H         1 UNK         0.0787 
    104 H104       25.6295  -34.4501  -43.7244 H         1 UNK         0.0787 
    105 H105       25.4564  -32.0140  -39.7619 H         1 UNK         0.3055 
    106 H106       24.5857  -31.6640  -37.7914 H         1 UNK         0.1106 
    107 H107       23.5103  -33.3860  -36.3989 H         1 UNK         0.0828 
    108 H108       23.3792  -34.4825  -37.7615 H         1 UNK         0.0828 
    109 H109       24.9656  -34.0412  -37.1311 H         1 UNK         0.0828 
    110 H110       22.3590  -33.1027  -40.1295 H         1 UNK         0.2931 
    111 H111       20.4168  -32.5140  -40.9338 H         1 UNK         0.0412 
    112 H112       20.4172  -33.7039  -38.1518 H         1 UNK         0.3472 
    113 H113       18.8114  -33.3518  -37.5609 H         1 UNK         0.3472 
    114 H114       21.6847  -30.1835  -40.9327 H         1 UNK         0.0970 
    115 H115       20.4983  -29.7124  -39.7527 H         1 UNK         0.0970 
    116 H116       20.9041  -31.3391  -43.4329 H         1 UNK         0.0612 
    117 H117       21.4860  -29.6935  -43.2713 H         1 UNK         0.0612 
@<TRIPOS>BOND
     1    1    2 1    
     2    1   62 1    
     3    1   63 1    
     4    1   64 1    
     5    2    3 2    
     6    2    4 am   BACKBONE|DICT|INTERRES
     7    4    5 1    
     8    4   65 1    
     9    5    6 1    
    10    5   25 1    
    11    5   66 1    
    12    6    7 1    
    13    6   67 1    
    14    6   68 1    
    15    7    8 1    
    16    8    9 1    
    17    8   69 1    
    18    8   70 1    
    19    9   10 ar   
    20    9   14 ar   
    21   10   11 ar   
    22   10   71 1    
    23   11   12 ar   
    24   11   61 1    
    25   12   13 ar   
    26   12   72 1    
    27   13   14 ar   
    28   13   15 1    
    29   14   73 1    
    30   15   16 1    
    31   15   74 1    
    32   15   75 1    
    33   16   17 1    
    34   17   18 1    
    35   17   76 1    
    36   17   77 1    
    37   18   19 1    
    38   18   27 1    
    39   18   78 1    
    40   19   20 am   BACKBONE|DICT|INTERRES
    41   19   79 1    
    42   20   21 2    
    43   20   22 1    
    44   22   23 1    
    45   22   24 1    
    46   22   80 1    
    47   23   81 1    
    48   23   82 1    
    49   23   83 1    
    50   24   25 am   BACKBONE|DICT|INTERRES
    51   24   84 1    
    52   25   26 2    
    53   27   28 2    
    54   27   29 am   BACKBONE|DICT|INTERRES
    55   29   30 1    
    56   29   85 1    
    57   30   31 1    
    58   30   32 1    
    59   30   86 1    
    60   31   87 1    
    61   31   88 1    
    62   31   89 1    
    63   32   33 2    
    64   32   34 am   BACKBONE|DICT|INTERRES
    65   34   35 1    
    66   34   90 1    
    67   35   36 1    
    68   35   37 1    
    69   35   91 1    
    70   36   92 1    
    71   36   93 1    
    72   36   94 1    
    73   37   38 2    
    74   37   39 am   BACKBONE|DICT|INTERRES
    75   39   40 1    
    76   39   95 1    
    77   40   41 1    
    78   40   42 1    
    79   40   96 1    
    80   41   97 1    
    81   41   98 1    
    82   41   99 1    
    83   42   43 2    
    84   42   44 am   BACKBONE|DICT|INTERRES
    85   44   45 1    
    86   44  100 1    
    87   45   46 1    
    88   45   47 1    
    89   45  101 1    
    90   46  102 1    
    91   46  103 1    
    92   46  104 1    
    93   47   48 2    
    94   47   49 am   BACKBONE|DICT|INTERRES
    95   49   50 1    
    96   49  105 1    
    97   50   51 1    
    98   50   52 1    
    99   50  106 1    
   100   51  107 1    
   101   51  108 1    
   102   51  109 1    
   103   52   53 2    
   104   52   54 am   BACKBONE|DICT|INTERRES
   105   54   55 1    
   106   54  110 1    
   107   55   56 1    
   108   55   59 1    
   109   55  111 1    
   110   56   57 am   BACKBONE|DICT|INTERRES
   111   56   58 2    
   112   57  112 1    
   113   57  113 1    
   114   59   60 1    
   115   59  114 1    
   116   59  115 1    
   117   60   61 1    
   118   61  116 1    
   119   61  117 1    
@<TRIPOS>SUBSTRUCTURE
     1 UNK         1 GROUP             0       ****    0 ROOT    
