@<TRIPOS>MOLECULE
3R8
117   119    1
SMALL
USER_CHARGES


@<TRIPOS>ATOM
      1 CA         14.8368  -22.3133  -46.4670 C.3       0 UNK        -0.2013 
      2 C          16.1740  -23.0330  -46.5621 C.2       0 UNK         0.4866 
      3 O          17.2100  -22.3831  -46.7083 O.2       0 UNK        -0.5176 
      4 N          16.1597  -24.3700  -46.4886 N.am      1 UNK        -0.4884 
      5 CA         17.3575  -25.2164  -46.4885 C.3       1 UNK         0.0853 
      6 C6         17.0040  -26.6797  -46.8536 C.3       10 UNK        -0.0849 
      7 S7         18.4158  -27.5689  -47.5901 S.3       10 UNK        -0.2776 
      8 C8         17.7297  -29.2462  -47.7542 C.3       10 UNK         0.0316 
      9 C9         17.8938  -30.0571  -46.4764 C.ar      10 UNK        -0.0863 
     10 C10        19.0450  -30.8275  -46.2819 C.ar      10 UNK        -0.1009 
     11 C11        19.1873  -31.6156  -45.1364 C.ar      10 UNK        -0.0712 
     12 C12        18.1639  -31.6329  -44.1844 C.ar      10 UNK        -0.0894 
     13 C13        17.0284  -30.8351  -44.3447 C.ar      10 UNK        -0.0745 
     14 C14        16.8912  -30.0603  -45.5009 C.ar      10 UNK        -0.0972 
     15 C15        15.9490  -30.8208  -43.2705 C.3       10 UNK         0.0209 
     16 S16        16.5646  -30.1893  -41.6723 S.3       10 UNK        -0.2568 
     17 C17        16.9782  -28.4553  -42.0660 C.3       10 UNK        -0.0983 
     18 CA         18.4939  -28.1580  -41.9025 C.3       3 UNK         0.0876 
     19 N          18.8821  -27.0000  -42.7087 N.am      3 UNK        -0.4424 
     20 C          20.1106  -26.7296  -43.1640 C.2       2 UNK         0.4918 
     21 O          21.0807  -27.4637  -42.9714 O.2       2 UNK        -0.4875 
     22 CA         20.2702  -25.4174  -43.9598 C.3       2 UNK         0.0481 
     23 CB         21.7233  -25.1666  -44.4023 C.3       2 UNK        -0.1831 
     24 N          19.4013  -25.3803  -45.1391 N.am      2 UNK        -0.4498 
     25 C          18.0839  -25.1399  -45.1290 C.2       1 UNK         0.5027 
     26 O          17.4422  -24.9166  -44.0973 O.2       1 UNK        -0.4969 
     27 C          18.9399  -27.9485  -40.4349 C.2       3 UNK         0.5005 
     28 O          18.1051  -27.7282  -39.5545 O.2       3 UNK        -0.5279 
     29 N          20.2593  -27.9488  -40.2099 N.am      4 UNK        -0.4463 
     30 CA         20.9110  -27.6593  -38.9342 C.3       4 UNK         0.0283 
     31 CB         21.0041  -26.1305  -38.7302 C.3       4 UNK        -0.1875 
     32 C          22.2693  -28.3780  -38.8810 C.2       4 UNK         0.4949 
     33 O          22.4039  -29.4618  -39.4495 O.2       4 UNK        -0.5039 
     34 N          23.2578  -27.7830  -38.1990 N.am      5 UNK        -0.4663 
     35 CA         24.6084  -28.3349  -38.0290 C.3       5 UNK         0.0242 
     36 CB         25.3797  -27.4779  -37.0125 C.3       5 UNK        -0.1982 
     37 C          25.4091  -28.4657  -39.3383 C.2       5 UNK         0.5017 
     38 O          26.3126  -29.3009  -39.4059 O.2       5 UNK        -0.5012 
     39 N          25.0583  -27.6581  -40.3507 N.am      6 UNK        -0.4439 
     40 CA         25.6013  -27.6982  -41.7102 C.3       6 UNK         0.0297 
     41 CB         24.9123  -26.6198  -42.5617 C.3       6 UNK        -0.2006 
     42 C          25.4153  -29.0880  -42.3405 C.2       6 UNK         0.4892 
     43 O          24.2793  -29.5455  -42.4683 O.2       6 UNK        -0.5089 
     44 N          26.5400  -29.7503  -42.6501 N.am      7 UNK        -0.4243 
     45 CA         26.6480  -31.1250  -43.1641 C.3       7 UNK         0.0196 
     46 CB         26.0891  -31.2051  -44.6011 C.3       7 UNK        -0.2007 
     47 C          26.0324  -32.2036  -42.2427 C.2       7 UNK         0.5020 
     48 O          25.7770  -33.3152  -42.7077 O.2       7 UNK        -0.5147 
     49 N          25.8020  -31.8628  -40.9634 N.am      8 UNK        -0.4734 
     50 CA         25.0938  -32.6476  -39.9445 C.3       8 UNK         0.0238 
     51 CB         25.9329  -33.8715  -39.5188 C.3       8 UNK        -0.1912 
     52 C          23.6490  -33.0164  -40.3486 C.2       8 UNK         0.5038 
     53 O          23.1795  -34.1024  -40.0015 O.2       8 UNK        -0.5046 
     54 N          22.9760  -32.1167  -41.0803 N.am      9 UNK        -0.4200 
     55 CA         21.5876  -32.2730  -41.5397 C.3       9 UNK         0.0839 
     56 C          20.5331  -32.3813  -40.4021 C.2       9 UNK         0.5513 
     57 N          20.7062  -31.6931  -39.2830 N.am      9 UNK        -0.7519 
     58 O          19.5484  -33.1014  -40.5429 O.2       9 UNK        -0.4960 
     59 C59        21.2021  -31.1544  -42.5396 C.3       10 UNK        -0.0876 
     60 S60        21.8165  -31.4862  -44.2242 S.3       10 UNK        -0.2414 
     61 C61        20.4419  -32.4540  -44.9308 C.3       10 UNK         0.0169 
     62 H62        14.6645  -21.7211  -47.3654 H         1 UNK         0.0903 
     63 H63        14.0055  -23.0091  -46.3552 H         1 UNK         0.0903 
     64 H64        14.8335  -21.6409  -45.6095 H         1 UNK         0.0903 
     65 H65        15.2834  -24.8470  -46.3303 H         1 UNK         0.3096 
     66 H66        18.0292  -24.8172  -47.2528 H         1 UNK         0.1121 
     67 H67        16.2022  -26.6975  -47.5941 H         1 UNK         0.0849 
     68 H68        16.6249  -27.2237  -45.9869 H         1 UNK         0.0849 
     69 H69        16.6789  -29.1952  -48.0439 H         1 UNK         0.0865 
     70 H70        18.2402  -29.7515  -48.5756 H         1 UNK         0.0865 
     71 H71        19.8308  -30.8183  -47.0251 H         1 UNK         0.1346 
     72 H72        18.2612  -32.2462  -43.2983 H         1 UNK         0.1412 
     73 H73        16.0009  -29.4638  -45.6437 H         1 UNK         0.1426 
     74 H74        15.5785  -31.8368  -43.1275 H         1 UNK         0.0716 
     75 H75        15.0914  -30.2229  -43.5831 H         1 UNK         0.0716 
     76 H76        16.6731  -28.2605  -43.0953 H         1 UNK         0.0695 
     77 H77        16.3648  -27.7897  -41.4562 H         1 UNK         0.0695 
     78 H78        19.0411  -29.0175  -42.2920 H         1 UNK         0.0983 
     79 H79        18.1529  -26.3246  -42.9154 H         1 UNK         0.3095 
     80 H80        19.9858  -24.6002  -43.2936 H         1 UNK         0.0454 
     81 H81        22.0982  -25.9691  -45.0390 H         1 UNK         0.0851 
     82 H82        22.3845  -25.0976  -43.5383 H         1 UNK         0.0851 
     83 H83        21.8168  -24.2295  -44.9511 H         1 UNK         0.0851 
     84 H84        19.8345  -25.6283  -46.0179 H         1 UNK         0.2976 
     85 H85        20.8836  -28.1240  -40.9918 H         1 UNK         0.3116 
     86 H86        20.3085  -28.0839  -38.1287 H         1 UNK         0.0646 
     87 H87        21.6559  -25.6631  -39.4694 H         1 UNK         0.0847 
     88 H88        21.3829  -25.8783  -37.7393 H         1 UNK         0.0847 
     89 H89        20.0241  -25.6605  -38.8137 H         1 UNK         0.0847 
     90 H90        23.0703  -26.8976  -37.7505 H         1 UNK         0.3040 
     91 H91        24.5051  -29.3423  -37.6192 H         1 UNK         0.1015 
     92 H92        25.4954  -26.4491  -37.3560 H         1 UNK         0.0786 
     93 H93        26.3802  -27.8790  -36.8430 H         1 UNK         0.0786 
     94 H94        24.8750  -27.4562  -36.0463 H         1 UNK         0.0786 
     95 H95        24.2825  -27.0330  -40.1943 H         1 UNK         0.3172 
     96 H96        26.6664  -27.4649  -41.6516 H         1 UNK         0.0595 
     97 H97        25.3111  -26.6109  -43.5770 H         1 UNK         0.0839 
     98 H98        25.0610  -25.6233  -42.1458 H         1 UNK         0.0839 
     99 H99        23.8389  -26.7992  -42.6373 H         1 UNK         0.0839 
    100 H100       27.4215  -29.2920  -42.4620 H         1 UNK         0.2998 
    101 H101       27.7148  -31.3484  -43.2113 H         1 UNK         0.0822 
    102 H102       26.2943  -32.1775  -45.0504 H         1 UNK         0.0787 
    103 H103       25.0081  -31.0609  -44.6210 H         1 UNK         0.0787 
    104 H104       26.5401  -30.4511  -45.2461 H         1 UNK         0.0787 
    105 H105       26.0599  -30.9243  -40.6733 H         1 UNK         0.3055 
    106 H106       24.9975  -31.9960  -39.0743 H         1 UNK         0.1106 
    107 H107       25.4788  -34.3812  -38.6682 H         1 UNK         0.0828 
    108 H108       26.0222  -34.6010  -40.3242 H         1 UNK         0.0828 
    109 H109       26.9386  -33.5779  -39.2182 H         1 UNK         0.0828 
    110 H110       23.4330  -31.2495  -41.3390 H         1 UNK         0.2931 
    111 H111       21.5440  -33.2278  -42.0676 H         1 UNK         0.0412 
    112 H112       21.4638  -31.0167  -39.2252 H         1 UNK         0.3472 
    113 H113       20.0291  -31.7662  -38.5414 H         1 UNK         0.3472 
    114 H114       21.6000  -30.1930  -42.2091 H         1 UNK         0.0970 
    115 H115       20.1259  -31.0112  -42.5828 H         1 UNK         0.0970 
    116 H116       20.7630  -32.8692  -45.8872 H         1 UNK         0.0612 
    117 H117       20.2311  -33.3077  -44.2848 H         1 UNK         0.0612 
@<TRIPOS>BOND
     1    1    2 1    
     2    1   62 1    
     3    1   63 1    
     4    1   64 1    
     5    2    3 2    
     6    2    4 am   BACKBONE|DICT|INTERRES
     7    4    5 1    
     8    4   65 1    
     9    5    6 1    
    10    5   25 1    
    11    5   66 1    
    12    6    7 1    
    13    6   67 1    
    14    6   68 1    
    15    7    8 1    
    16    8    9 1    
    17    8   69 1    
    18    8   70 1    
    19    9   10 ar   
    20    9   14 ar   
    21   10   11 ar   
    22   10   71 1    
    23   11   12 ar   
    24   11   61 1    
    25   12   13 ar   
    26   12   72 1    
    27   13   14 ar   
    28   13   15 1    
    29   14   73 1    
    30   15   16 1    
    31   15   74 1    
    32   15   75 1    
    33   16   17 1    
    34   17   18 1    
    35   17   76 1    
    36   17   77 1    
    37   18   19 1    
    38   18   27 1    
    39   18   78 1    
    40   19   20 am   BACKBONE|DICT|INTERRES
    41   19   79 1    
    42   20   21 2    
    43   20   22 1    
    44   22   23 1    
    45   22   24 1    
    46   22   80 1    
    47   23   81 1    
    48   23   82 1    
    49   23   83 1    
    50   24   25 am   BACKBONE|DICT|INTERRES
    51   24   84 1    
    52   25   26 2    
    53   27   28 2    
    54   27   29 am   BACKBONE|DICT|INTERRES
    55   29   30 1    
    56   29   85 1    
    57   30   31 1    
    58   30   32 1    
    59   30   86 1    
    60   31   87 1    
    61   31   88 1    
    62   31   89 1    
    63   32   33 2    
    64   32   34 am   BACKBONE|DICT|INTERRES
    65   34   35 1    
    66   34   90 1    
    67   35   36 1    
    68   35   37 1    
    69   35   91 1    
    70   36   92 1    
    71   36   93 1    
    72   36   94 1    
    73   37   38 2    
    74   37   39 am   BACKBONE|DICT|INTERRES
    75   39   40 1    
    76   39   95 1    
    77   40   41 1    
    78   40   42 1    
    79   40   96 1    
    80   41   97 1    
    81   41   98 1    
    82   41   99 1    
    83   42   43 2    
    84   42   44 am   BACKBONE|DICT|INTERRES
    85   44   45 1    
    86   44  100 1    
    87   45   46 1    
    88   45   47 1    
    89   45  101 1    
    90   46  102 1    
    91   46  103 1    
    92   46  104 1    
    93   47   48 2    
    94   47   49 am   BACKBONE|DICT|INTERRES
    95   49   50 1    
    96   49  105 1    
    97   50   51 1    
    98   50   52 1    
    99   50  106 1    
   100   51  107 1    
   101   51  108 1    
   102   51  109 1    
   103   52   53 2    
   104   52   54 am   BACKBONE|DICT|INTERRES
   105   54   55 1    
   106   54  110 1    
   107   55   56 1    
   108   55   59 1    
   109   55  111 1    
   110   56   57 am   BACKBONE|DICT|INTERRES
   111   56   58 2    
   112   57  112 1    
   113   57  113 1    
   114   59   60 1    
   115   59  114 1    
   116   59  115 1    
   117   60   61 1    
   118   61  116 1    
   119   61  117 1    
@<TRIPOS>SUBSTRUCTURE
     1 UNK         1 GROUP             0       ****    0 ROOT    
