@<TRIPOS>MOLECULE
3R8
117   119    1
SMALL
USER_CHARGES


@<TRIPOS>ATOM
      1 CA         13.8540  -21.4544  -45.7711 C.3       0 UNK        -0.2013 
      2 C          14.2078  -22.9054  -46.0603 C.2       0 UNK         0.4866 
      3 O          13.9913  -23.3774  -47.1765 O.2       0 UNK        -0.5176 
      4 N          14.7517  -23.6176  -45.0636 N.am      1 UNK        -0.4884 
      5 CA         15.1601  -25.0261  -45.1702 C.3       1 UNK         0.0853 
      6 C6         15.2810  -25.6803  -43.7671 C.3       10 UNK        -0.0849 
      7 S7         14.9013  -27.4655  -43.7887 S.3       10 UNK        -0.2776 
      8 C8         15.3655  -27.9660  -42.0994 C.3       10 UNK         0.0316 
      9 C9         16.8667  -28.1763  -41.9620 C.ar      10 UNK        -0.0863 
     10 C10        17.4396  -29.4043  -42.3100 C.ar      10 UNK        -0.1009 
     11 C11        18.8180  -29.6040  -42.1864 C.ar      10 UNK        -0.0712 
     12 C12        19.6241  -28.5721  -41.6986 C.ar      10 UNK        -0.0894 
     13 C13        19.0664  -27.3300  -41.3830 C.ar      10 UNK        -0.0745 
     14 C14        17.6855  -27.1444  -41.4944 C.ar      10 UNK        -0.0972 
     15 C15        19.9604  -26.1668  -40.9863 C.3       10 UNK         0.0209 
     16 S16        20.2059  -25.0291  -42.3909 S.3       10 UNK        -0.2568 
     17 C17        21.1617  -26.0602  -43.5597 C.3       10 UNK        -0.0983 
     18 CA         20.2759  -26.7820  -44.6238 C.3       3 UNK         0.0876 
     19 N          19.3954  -25.8882  -45.3790 N.am      3 UNK        -0.4424 
     20 C          19.7294  -24.8385  -46.1368 C.2       2 UNK         0.4918 
     21 O          20.8867  -24.4568  -46.3163 O.2       2 UNK        -0.4875 
     22 CA         18.5760  -24.0429  -46.7857 C.3       2 UNK         0.0481 
     23 CB         18.4542  -24.3721  -48.2865 C.3       2 UNK        -0.1831 
     24 N          17.2727  -24.1487  -46.1031 N.am      2 UNK        -0.4498 
     25 C          16.4571  -25.2112  -45.9921 C.2       1 UNK         0.5027 
     26 O          16.7130  -26.3136  -46.4759 O.2       1 UNK        -0.4969 
     27 C          21.0725  -27.7358  -45.5441 C.2       3 UNK         0.5005 
     28 O          20.8153  -27.8043  -46.7495 O.2       3 UNK        -0.5279 
     29 N          22.0029  -28.4920  -44.9490 N.am      4 UNK        -0.4463 
     30 CA         22.8904  -29.4351  -45.6292 C.3       4 UNK         0.0283 
     31 CB         22.2372  -30.8256  -45.7427 C.3       4 UNK        -0.1875 
     32 C          24.2279  -29.4951  -44.8863 C.2       4 UNK         0.4949 
     33 O          25.2710  -29.2568  -45.4946 O.2       4 UNK        -0.5039 
     34 N          24.1702  -29.7622  -43.5759 N.am      5 UNK        -0.4663 
     35 CA         25.3070  -29.7423  -42.6618 C.3       5 UNK         0.0242 
     36 CB         26.0887  -31.0664  -42.7519 C.3       5 UNK        -0.1982 
     37 C          24.7752  -29.5256  -41.2433 C.2       5 UNK         0.5017 
     38 O          23.6703  -29.9809  -40.9355 O.2       5 UNK        -0.5012 
     39 N          25.5813  -28.8714  -40.3977 N.am      6 UNK        -0.4439 
     40 CA         25.2871  -28.6598  -38.9759 C.3       6 UNK         0.0297 
     41 CB         26.2167  -27.5701  -38.4181 C.3       6 UNK        -0.2006 
     42 C          25.4070  -29.9476  -38.1407 C.2       6 UNK         0.4892 
     43 O          24.7592  -30.0563  -37.0987 O.2       6 UNK        -0.5089 
     44 N          26.2121  -30.9076  -38.6178 N.am      7 UNK        -0.4243 
     45 CA         26.4168  -32.2312  -38.0284 C.3       7 UNK         0.0196 
     46 CB         27.7546  -32.7981  -38.5399 C.3       7 UNK        -0.2007 
     47 C          25.2282  -33.1676  -38.3186 C.2       7 UNK         0.5020 
     48 O          25.3851  -34.1646  -39.0254 O.2       7 UNK        -0.5147 
     49 N          24.0516  -32.8048  -37.7881 N.am      8 UNK        -0.4734 
     50 CA         22.7747  -33.5307  -37.8519 C.3       8 UNK         0.0238 
     51 CB         22.8290  -34.7707  -36.9340 C.3       8 UNK        -0.1912 
     52 C          22.3243  -33.8746  -39.2870 C.2       8 UNK         0.5038 
     53 O          21.8178  -34.9737  -39.5218 O.2       8 UNK        -0.5046 
     54 N          22.5367  -32.9336  -40.2181 N.am      9 UNK        -0.4200 
     55 CA         22.2556  -33.0605  -41.6589 C.3       9 UNK         0.0839 
     56 C          23.1949  -34.0447  -42.4200 C.2       9 UNK         0.5513 
     57 N          24.2779  -34.5356  -41.8275 N.am      9 UNK        -0.7519 
     58 O          22.9587  -34.3417  -43.5880 O.2       9 UNK        -0.4960 
     59 C59        20.7500  -33.3011  -41.9807 C.3       10 UNK        -0.0876 
     60 S60        19.6588  -32.0483  -41.2236 S.3       10 UNK        -0.2414 
     61 C61        19.4511  -30.9134  -42.6232 C.3       10 UNK         0.0169 
     62 H62        14.0961  -21.1706  -44.7471 H         1 UNK         0.0903 
     63 H63        14.4001  -20.7938  -46.4441 H         1 UNK         0.0903 
     64 H64        12.7877  -21.2909  -45.9245 H         1 UNK         0.0903 
     65 H65        14.8983  -23.1793  -44.1644 H         1 UNK         0.3096 
     66 H66        14.3699  -25.5422  -45.7213 H         1 UNK         0.1121 
     67 H67        16.2681  -25.5092  -43.3343 H         1 UNK         0.0849 
     68 H68        14.5703  -25.2240  -43.0759 H         1 UNK         0.0849 
     69 H69        14.8454  -28.8933  -41.8538 H         1 UNK         0.0865 
     70 H70        15.0112  -27.2244  -41.3815 H         1 UNK         0.0865 
     71 H71        16.8133  -30.2007  -42.6888 H         1 UNK         0.1346 
     72 H72        20.6912  -28.7239  -41.6082 H         1 UNK         0.1412 
     73 H73        17.2551  -26.1844  -41.2439 H         1 UNK         0.1426 
     74 H74        20.9272  -26.5200  -40.6237 H         1 UNK         0.0716 
     75 H75        19.5038  -25.6193  -40.1604 H         1 UNK         0.0716 
     76 H76        21.7404  -26.7723  -42.9708 H         1 UNK         0.0695 
     77 H77        21.8964  -25.4188  -44.0489 H         1 UNK         0.0695 
     78 H78        19.5834  -27.4362  -44.0985 H         1 UNK         0.0983 
     79 H79        18.4220  -26.1654  -45.4069 H         1 UNK         0.3095 
     80 H80        18.8541  -22.9907  -46.7075 H         1 UNK         0.0454 
     81 H81        17.6750  -23.7771  -48.7625 H         1 UNK         0.0851 
     82 H82        18.2264  -25.4246  -48.4571 H         1 UNK         0.0851 
     83 H83        19.3888  -24.1587  -48.8067 H         1 UNK         0.0851 
     84 H84        16.9687  -23.3035  -45.6397 H         1 UNK         0.2976 
     85 H85        22.1962  -28.3330  -43.9712 H         1 UNK         0.3116 
     86 H86        23.0964  -29.0678  -46.6373 H         1 UNK         0.0646 
     87 H87        22.0217  -31.2618  -44.7676 H         1 UNK         0.0847 
     88 H88        21.3031  -30.7799  -46.3026 H         1 UNK         0.0847 
     89 H89        22.8945  -31.5198  -46.2679 H         1 UNK         0.0847 
     90 H90        23.2873  -29.9609  -43.1241 H         1 UNK         0.3040 
     91 H91        25.9627  -28.9088  -42.9249 H         1 UNK         0.1015 
     92 H92        26.4709  -31.2364  -43.7584 H         1 UNK         0.0786 
     93 H93        25.4657  -31.9203  -42.4841 H         1 UNK         0.0786 
     94 H94        26.9468  -31.0644  -42.0789 H         1 UNK         0.0786 
     95 H95        26.4675  -28.5214  -40.7351 H         1 UNK         0.3172 
     96 H96        24.2573  -28.3062  -38.8881 H         1 UNK         0.0595 
     97 H97        27.2666  -27.8585  -38.4840 H         1 UNK         0.0839 
     98 H98        25.9992  -27.3736  -37.3671 H         1 UNK         0.0839 
     99 H99        26.0914  -26.6284  -38.9531 H         1 UNK         0.0839 
    100 H100       26.6854  -30.7312  -39.4909 H         1 UNK         0.2998 
    101 H101       26.4920  -32.1263  -36.9437 H         1 UNK         0.0822 
    102 H102       27.7564  -32.9172  -39.6243 H         1 UNK         0.0787 
    103 H103       28.5890  -32.1498  -38.2717 H         1 UNK         0.0787 
    104 H104       27.9550  -33.7779  -38.1040 H         1 UNK         0.0787 
    105 H105       24.0364  -31.9207  -37.2861 H         1 UNK         0.3055 
    106 H106       22.0133  -32.8576  -37.4543 H         1 UNK         0.1106 
    107 H107       21.8559  -35.2599  -36.8753 H         1 UNK         0.0828 
    108 H108       23.5439  -35.5097  -37.2978 H         1 UNK         0.0828 
    109 H109       23.1141  -34.5005  -35.9173 H         1 UNK         0.0828 
    110 H110       22.9707  -32.0630  -39.9422 H         1 UNK         0.2931 
    111 H111       22.5078  -32.0859  -42.0758 H         1 UNK         0.0412 
    112 H112       24.4949  -34.3199  -40.8607 H         1 UNK         0.3472 
    113 H113       24.8759  -35.1606  -42.3437 H         1 UNK         0.3472 
    114 H114       20.5828  -33.3068  -43.0594 H         1 UNK         0.0970 
    115 H115       20.4351  -34.2857  -41.6327 H         1 UNK         0.0970 
    116 H116       20.4239  -30.7119  -43.0725 H         1 UNK         0.0612 
    117 H117       18.8462  -31.3937  -43.3939 H         1 UNK         0.0612 
@<TRIPOS>BOND
     1    1    2 1    
     2    1   62 1    
     3    1   63 1    
     4    1   64 1    
     5    2    3 2    
     6    2    4 am   BACKBONE|DICT|INTERRES
     7    4    5 1    
     8    4   65 1    
     9    5    6 1    
    10    5   25 1    
    11    5   66 1    
    12    6    7 1    
    13    6   67 1    
    14    6   68 1    
    15    7    8 1    
    16    8    9 1    
    17    8   69 1    
    18    8   70 1    
    19    9   10 ar   
    20    9   14 ar   
    21   10   11 ar   
    22   10   71 1    
    23   11   12 ar   
    24   11   61 1    
    25   12   13 ar   
    26   12   72 1    
    27   13   14 ar   
    28   13   15 1    
    29   14   73 1    
    30   15   16 1    
    31   15   74 1    
    32   15   75 1    
    33   16   17 1    
    34   17   18 1    
    35   17   76 1    
    36   17   77 1    
    37   18   19 1    
    38   18   27 1    
    39   18   78 1    
    40   19   20 am   BACKBONE|DICT|INTERRES
    41   19   79 1    
    42   20   21 2    
    43   20   22 1    
    44   22   23 1    
    45   22   24 1    
    46   22   80 1    
    47   23   81 1    
    48   23   82 1    
    49   23   83 1    
    50   24   25 am   BACKBONE|DICT|INTERRES
    51   24   84 1    
    52   25   26 2    
    53   27   28 2    
    54   27   29 am   BACKBONE|DICT|INTERRES
    55   29   30 1    
    56   29   85 1    
    57   30   31 1    
    58   30   32 1    
    59   30   86 1    
    60   31   87 1    
    61   31   88 1    
    62   31   89 1    
    63   32   33 2    
    64   32   34 am   BACKBONE|DICT|INTERRES
    65   34   35 1    
    66   34   90 1    
    67   35   36 1    
    68   35   37 1    
    69   35   91 1    
    70   36   92 1    
    71   36   93 1    
    72   36   94 1    
    73   37   38 2    
    74   37   39 am   BACKBONE|DICT|INTERRES
    75   39   40 1    
    76   39   95 1    
    77   40   41 1    
    78   40   42 1    
    79   40   96 1    
    80   41   97 1    
    81   41   98 1    
    82   41   99 1    
    83   42   43 2    
    84   42   44 am   BACKBONE|DICT|INTERRES
    85   44   45 1    
    86   44  100 1    
    87   45   46 1    
    88   45   47 1    
    89   45  101 1    
    90   46  102 1    
    91   46  103 1    
    92   46  104 1    
    93   47   48 2    
    94   47   49 am   BACKBONE|DICT|INTERRES
    95   49   50 1    
    96   49  105 1    
    97   50   51 1    
    98   50   52 1    
    99   50  106 1    
   100   51  107 1    
   101   51  108 1    
   102   51  109 1    
   103   52   53 2    
   104   52   54 am   BACKBONE|DICT|INTERRES
   105   54   55 1    
   106   54  110 1    
   107   55   56 1    
   108   55   59 1    
   109   55  111 1    
   110   56   57 am   BACKBONE|DICT|INTERRES
   111   56   58 2    
   112   57  112 1    
   113   57  113 1    
   114   59   60 1    
   115   59  114 1    
   116   59  115 1    
   117   60   61 1    
   118   61  116 1    
   119   61  117 1    
@<TRIPOS>SUBSTRUCTURE
     1 UNK         1 GROUP             0       ****    0 ROOT    
