@<TRIPOS>MOLECULE
3R8
117   119    1
SMALL
USER_CHARGES


@<TRIPOS>ATOM
      1 CA         19.0791  -28.6808  -41.2236 C.3       0 UNK        -0.2013 
      2 C          17.8450  -27.8078  -41.3922 C.2       0 UNK         0.4866 
      3 O          16.9170  -27.8976  -40.5876 O.2       0 UNK        -0.5176 
      4 N          17.8270  -26.9658  -42.4285 N.am      1 UNK        -0.4884 
      5 CA         16.7438  -26.0363  -42.7424 C.3       1 UNK         0.0853 
      6 C6         15.5577  -26.7130  -43.4913 C.3       10 UNK        -0.0849 
      7 S7         15.9394  -27.4373  -45.1293 S.3       10 UNK        -0.2776 
      8 C8         16.3568  -29.1751  -44.7393 C.3       10 UNK         0.0316 
      9 C9         17.8097  -29.5487  -45.0378 C.ar      10 UNK        -0.0863 
     10 C10        18.4489  -30.5104  -44.2495 C.ar      10 UNK        -0.1009 
     11 C11        19.7594  -30.9076  -44.5299 C.ar      10 UNK        -0.0712 
     12 C12        20.4466  -30.3156  -45.5945 C.ar      10 UNK        -0.0894 
     13 C13        19.8278  -29.3506  -46.3964 C.ar      10 UNK        -0.0745 
     14 C14        18.5011  -28.9939  -46.1218 C.ar      10 UNK        -0.0972 
     15 C15        20.5941  -28.7604  -47.5830 C.3       10 UNK         0.0209 
     16 S16        20.0516  -27.0890  -48.0966 S.3       10 UNK        -0.2568 
     17 C17        21.2601  -25.9783  -47.2896 C.3       10 UNK        -0.0983 
     18 CA         20.8613  -25.4335  -45.8895 C.3       3 UNK         0.0876 
     19 N          19.4841  -24.9575  -45.8267 N.am      3 UNK        -0.4424 
     20 C          19.0675  -23.6910  -45.8684 C.2       2 UNK         0.4918 
     21 O          19.7907  -22.7359  -46.1530 O.2       2 UNK        -0.4875 
     22 CA         17.5894  -23.4461  -45.5006 C.3       2 UNK         0.0481 
     23 CB         16.7417  -23.2879  -46.7725 C.3       2 UNK        -0.1831 
     24 N          17.0131  -24.5116  -44.6688 N.am      2 UNK        -0.4498 
     25 C          17.3569  -24.7840  -43.4014 C.2       1 UNK         0.5027 
     26 O          18.1442  -24.0925  -42.7519 O.2       1 UNK        -0.4969 
     27 C          21.0345  -26.4669  -44.7631 C.2       3 UNK         0.5005 
     28 O          20.0571  -26.8081  -44.0901 O.2       3 UNK        -0.5279 
     29 N          22.2661  -26.9417  -44.5594 N.am      4 UNK        -0.4463 
     30 CA         22.5893  -27.9772  -43.5868 C.3       4 UNK         0.0283 
     31 CB         22.8464  -27.3508  -42.2057 C.3       4 UNK        -0.1875 
     32 C          23.8113  -28.7554  -44.0731 C.2       4 UNK         0.4949 
     33 O          24.6960  -28.1754  -44.7061 O.2       4 UNK        -0.5039 
     34 N          23.8473  -30.0443  -43.7316 N.am      5 UNK        -0.4663 
     35 CA         24.9545  -30.9631  -43.9710 C.3       5 UNK         0.0242 
     36 CB         24.4102  -32.2271  -44.6636 C.3       5 UNK        -0.1982 
     37 C          25.6151  -31.2607  -42.6170 C.2       5 UNK         0.5017 
     38 O          25.4840  -32.3700  -42.0993 O.2       5 UNK        -0.5012 
     39 N          26.2792  -30.2346  -42.0652 N.am      6 UNK        -0.4439 
     40 CA         26.9190  -30.1807  -40.7457 C.3       6 UNK         0.0297 
     41 CB         28.0095  -31.2634  -40.5885 C.3       6 UNK        -0.2006 
     42 C          25.8861  -30.1974  -39.6026 C.2       6 UNK         0.4892 
     43 O          25.6753  -31.2319  -38.9669 O.2       6 UNK        -0.5089 
     44 N          25.2905  -29.0213  -39.3563 N.am      7 UNK        -0.4243 
     45 CA         24.3682  -28.7021  -38.2601 C.3       7 UNK         0.0196 
     46 CB         25.0883  -28.7930  -36.8931 C.3       7 UNK        -0.2007 
     47 C          23.0454  -29.4892  -38.3391 C.2       7 UNK         0.5020 
     48 O          22.3744  -29.4295  -39.3697 O.2       7 UNK        -0.5147 
     49 N          22.6582  -30.1632  -37.2477 N.am      8 UNK        -0.4734 
     50 CA         21.3827  -30.8658  -37.0722 C.3       8 UNK         0.0238 
     51 CB         21.1280  -31.0564  -35.5647 C.3       8 UNK        -0.1912 
     52 C          21.3092  -32.1920  -37.8561 C.2       8 UNK         0.5038 
     53 O          21.1873  -33.2620  -37.2561 O.2       8 UNK        -0.5046 
     54 N          21.3864  -32.0920  -39.1854 N.am      9 UNK        -0.4200 
     55 CA         21.2643  -33.1995  -40.1434 C.3       9 UNK         0.0839 
     56 C          19.8231  -33.7567  -40.3360 C.2       9 UNK         0.5513 
     57 N          18.7834  -33.1184  -39.8117 N.am      9 UNK        -0.7519 
     58 O          19.6488  -34.7963  -40.9664 O.2       9 UNK        -0.4960 
     59 C59        21.9380  -32.8418  -41.4920 C.3       10 UNK        -0.0876 
     60 S60        21.2721  -31.3234  -42.2581 S.3       10 UNK        -0.2414 
     61 C61        20.4162  -32.0042  -43.7056 C.3       10 UNK         0.0169 
     62 H62        19.6429  -28.3806  -40.3408 H         1 UNK         0.0903 
     63 H63        18.7901  -29.7248  -41.1064 H         1 UNK         0.0903 
     64 H64        19.7399  -28.6133  -42.0873 H         1 UNK         0.0903 
     65 H65        18.6373  -26.9175  -43.0513 H         1 UNK         0.3096 
     66 H66        16.3436  -25.6674  -41.7950 H         1 UNK         0.1121 
     67 H67        15.1215  -27.4854  -42.8564 H         1 UNK         0.0849 
     68 H68        14.7547  -25.9867  -43.6299 H         1 UNK         0.0849 
     69 H69        16.1256  -29.3835  -43.6940 H         1 UNK         0.0865 
     70 H70        15.7095  -29.8250  -45.3292 H         1 UNK         0.0865 
     71 H71        17.9206  -30.9681  -43.4243 H         1 UNK         0.1346 
     72 H72        21.4613  -30.6221  -45.8092 H         1 UNK         0.1412 
     73 H73        17.9983  -28.2810  -46.7580 H         1 UNK         0.1426 
     74 H74        20.4615  -29.4323  -48.4317 H         1 UNK         0.0716 
     75 H75        21.6641  -28.7451  -47.3712 H         1 UNK         0.0716 
     76 H76        21.3801  -25.1255  -47.9593 H         1 UNK         0.0695 
     77 H77        22.2412  -26.4552  -47.2704 H         1 UNK         0.0695 
     78 H78        21.5308  -24.6072  -45.6398 H         1 UNK         0.0983 
     79 H79        18.8345  -25.6669  -45.5146 H         1 UNK         0.3095 
     80 H80        17.5394  -22.5125  -44.9366 H         1 UNK         0.0454 
     81 H81        16.7419  -24.1983  -47.3735 H         1 UNK         0.0851 
     82 H82        17.1268  -22.4832  -47.4004 H         1 UNK         0.0851 
     83 H83        15.7070  -23.0425  -46.5331 H         1 UNK         0.0851 
     84 H84        16.3835  -25.1590  -45.1273 H         1 UNK         0.2976 
     85 H85        23.0385  -26.6583  -45.1496 H         1 UNK         0.3116 
     86 H86        21.7512  -28.6727  -43.5142 H         1 UNK         0.0646 
     87 H87        23.1479  -28.1108  -41.4853 H         1 UNK         0.0847 
     88 H88        21.9480  -26.8740  -41.8135 H         1 UNK         0.0847 
     89 H89        23.6379  -26.6017  -42.2428 H         1 UNK         0.0847 
     90 H90        23.0838  -30.4160  -43.1772 H         1 UNK         0.3040 
     91 H91        25.7061  -30.5135  -44.6241 H         1 UNK         0.1015 
     92 H92        23.9532  -31.9855  -45.6233 H         1 UNK         0.0786 
     93 H93        23.6605  -32.7346  -44.0559 H         1 UNK         0.0786 
     94 H94        25.2121  -32.9409  -44.8562 H         1 UNK         0.0786 
     95 H95        26.2927  -29.3677  -42.5859 H         1 UNK         0.3172 
     96 H96        27.4298  -29.2174  -40.6988 H         1 UNK         0.0595 
     97 H97        27.5960  -32.2721  -40.5863 H         1 UNK         0.0839 
     98 H98        28.5439  -31.1368  -39.6463 H         1 UNK         0.0839 
     99 H99        28.7461  -31.2049  -41.3896 H         1 UNK         0.0839 
    100 H100       25.5082  -28.2481  -39.9689 H         1 UNK         0.2998 
    101 H101       24.0882  -27.6573  -38.4038 H         1 UNK         0.0822 
    102 H102       25.3914  -29.8126  -36.6516 H         1 UNK         0.0787 
    103 H103       25.9863  -28.1749  -36.8844 H         1 UNK         0.0787 
    104 H104       24.4519  -28.4321  -36.0838 H         1 UNK         0.0787 
    105 H105       23.2922  -30.1864  -36.4620 H         1 UNK         0.3055 
    106 H106       20.5860  -30.2270  -37.4609 H         1 UNK         0.1106 
    107 H107       21.8971  -31.6740  -35.0989 H         1 UNK         0.0828 
    108 H108       21.1022  -30.1003  -35.0416 H         1 UNK         0.0828 
    109 H109       20.1679  -31.5437  -35.3886 H         1 UNK         0.0828 
    110 H110       21.5421  -31.1703  -39.5844 H         1 UNK         0.2931 
    111 H111       21.8352  -34.0318  -39.7272 H         1 UNK         0.0412 
    112 H112       18.9160  -32.2636  -39.2971 H         1 UNK         0.3472 
    113 H113       17.8572  -33.4944  -39.9394 H         1 UNK         0.3472 
    114 H114       23.0027  -32.6824  -41.3210 H         1 UNK         0.0970 
    115 H115       21.8810  -33.6782  -42.1911 H         1 UNK         0.0970 
    116 H116       19.6655  -32.7237  -43.3747 H         1 UNK         0.0612 
    117 H117       21.1270  -32.5585  -44.3201 H         1 UNK         0.0612 
@<TRIPOS>BOND
     1    1    2 1    
     2    1   62 1    
     3    1   63 1    
     4    1   64 1    
     5    2    3 2    
     6    2    4 am   BACKBONE|DICT|INTERRES
     7    4    5 1    
     8    4   65 1    
     9    5    6 1    
    10    5   25 1    
    11    5   66 1    
    12    6    7 1    
    13    6   67 1    
    14    6   68 1    
    15    7    8 1    
    16    8    9 1    
    17    8   69 1    
    18    8   70 1    
    19    9   10 ar   
    20    9   14 ar   
    21   10   11 ar   
    22   10   71 1    
    23   11   12 ar   
    24   11   61 1    
    25   12   13 ar   
    26   12   72 1    
    27   13   14 ar   
    28   13   15 1    
    29   14   73 1    
    30   15   16 1    
    31   15   74 1    
    32   15   75 1    
    33   16   17 1    
    34   17   18 1    
    35   17   76 1    
    36   17   77 1    
    37   18   19 1    
    38   18   27 1    
    39   18   78 1    
    40   19   20 am   BACKBONE|DICT|INTERRES
    41   19   79 1    
    42   20   21 2    
    43   20   22 1    
    44   22   23 1    
    45   22   24 1    
    46   22   80 1    
    47   23   81 1    
    48   23   82 1    
    49   23   83 1    
    50   24   25 am   BACKBONE|DICT|INTERRES
    51   24   84 1    
    52   25   26 2    
    53   27   28 2    
    54   27   29 am   BACKBONE|DICT|INTERRES
    55   29   30 1    
    56   29   85 1    
    57   30   31 1    
    58   30   32 1    
    59   30   86 1    
    60   31   87 1    
    61   31   88 1    
    62   31   89 1    
    63   32   33 2    
    64   32   34 am   BACKBONE|DICT|INTERRES
    65   34   35 1    
    66   34   90 1    
    67   35   36 1    
    68   35   37 1    
    69   35   91 1    
    70   36   92 1    
    71   36   93 1    
    72   36   94 1    
    73   37   38 2    
    74   37   39 am   BACKBONE|DICT|INTERRES
    75   39   40 1    
    76   39   95 1    
    77   40   41 1    
    78   40   42 1    
    79   40   96 1    
    80   41   97 1    
    81   41   98 1    
    82   41   99 1    
    83   42   43 2    
    84   42   44 am   BACKBONE|DICT|INTERRES
    85   44   45 1    
    86   44  100 1    
    87   45   46 1    
    88   45   47 1    
    89   45  101 1    
    90   46  102 1    
    91   46  103 1    
    92   46  104 1    
    93   47   48 2    
    94   47   49 am   BACKBONE|DICT|INTERRES
    95   49   50 1    
    96   49  105 1    
    97   50   51 1    
    98   50   52 1    
    99   50  106 1    
   100   51  107 1    
   101   51  108 1    
   102   51  109 1    
   103   52   53 2    
   104   52   54 am   BACKBONE|DICT|INTERRES
   105   54   55 1    
   106   54  110 1    
   107   55   56 1    
   108   55   59 1    
   109   55  111 1    
   110   56   57 am   BACKBONE|DICT|INTERRES
   111   56   58 2    
   112   57  112 1    
   113   57  113 1    
   114   59   60 1    
   115   59  114 1    
   116   59  115 1    
   117   60   61 1    
   118   61  116 1    
   119   61  117 1    
@<TRIPOS>SUBSTRUCTURE
     1 UNK         1 GROUP             0       ****    0 ROOT    
