@<TRIPOS>MOLECULE
3R8
117   119    1
SMALL
USER_CHARGES


@<TRIPOS>ATOM
      1 CA         14.6311  -22.1785  -45.1737 C.3       0 UNK        -0.2013 
      2 C          15.4005  -23.3659  -45.7336 C.2       0 UNK         0.4866 
      3 O          16.0326  -23.2448  -46.7838 O.2       0 UNK        -0.5176 
      4 N          15.3449  -24.5134  -45.0454 N.am      1 UNK        -0.4884 
      5 CA         16.0829  -25.7329  -45.3939 C.3       1 UNK         0.0853 
      6 C6         15.3573  -26.9921  -44.8560 C.3       10 UNK        -0.0849 
      7 S7         15.6833  -28.4728  -45.8769 S.3       10 UNK        -0.2776 
      8 C8         15.6427  -29.8105  -44.6419 C.3       10 UNK         0.0316 
      9 C9         16.8753  -29.7972  -43.7509 C.ar      10 UNK        -0.0863 
     10 C10        18.0666  -30.3844  -44.1843 C.ar      10 UNK        -0.1009 
     11 C11        19.1996  -30.3807  -43.3648 C.ar      10 UNK        -0.0712 
     12 C12        19.1385  -29.7706  -42.1068 C.ar      10 UNK        -0.0894 
     13 C13        17.9571  -29.1579  -41.6728 C.ar      10 UNK        -0.0745 
     14 C14        16.8244  -29.2016  -42.4892 C.ar      10 UNK        -0.0972 
     15 C15        17.8808  -28.4422  -40.3297 C.3       10 UNK         0.0209 
     16 S16        17.5182  -26.6627  -40.5403 S.3       10 UNK        -0.2568 
     17 C17        19.1567  -25.8689  -40.4086 C.3       10 UNK        -0.0983 
     18 CA         20.2152  -26.3974  -41.4044 C.3       3 UNK         0.0876 
     19 N          19.7914  -26.2943  -42.8082 N.am      3 UNK        -0.4424 
     20 C          20.3876  -26.9151  -43.8340 C.2       2 UNK         0.4918 
     21 O          21.3813  -27.6286  -43.6850 O.2       2 UNK        -0.4875 
     22 CA         19.8363  -26.6606  -45.2552 C.3       2 UNK         0.0481 
     23 CB         20.3714  -27.6845  -46.2736 C.3       2 UNK        -0.1831 
     24 N          18.3739  -26.6115  -45.3736 N.am      2 UNK        -0.4498 
     25 C          17.5592  -25.6423  -44.9381 C.2       1 UNK         0.5027 
     26 O          17.9381  -24.7112  -44.2212 O.2       1 UNK        -0.4969 
     27 C          21.5977  -25.7669  -41.1336 C.2       3 UNK         0.5005 
     28 O          22.2219  -26.1042  -40.1268 O.2       3 UNK        -0.5279 
     29 N          22.0963  -24.9353  -42.0619 N.am      4 UNK        -0.4463 
     30 CA         23.4721  -24.4262  -42.1025 C.3       4 UNK         0.0283 
     31 CB         23.6131  -23.4500  -43.2813 C.3       4 UNK        -0.1875 
     32 C          24.5473  -25.5306  -42.1888 C.2       4 UNK         0.4949 
     33 O          25.6896  -25.2832  -41.8037 O.2       4 UNK        -0.5039 
     34 N          24.1657  -26.7329  -42.6491 N.am      5 UNK        -0.4663 
     35 CA         24.9961  -27.9401  -42.6285 C.3       5 UNK         0.0242 
     36 CB         24.4466  -28.9406  -43.6608 C.3       5 UNK        -0.1982 
     37 C          25.0907  -28.6013  -41.2378 C.2       5 UNK         0.5017 
     38 O          25.7846  -29.6093  -41.1158 O.2       5 UNK        -0.5012 
     39 N          24.3781  -28.0732  -40.2274 N.am      6 UNK        -0.4439 
     40 CA         24.3200  -28.5526  -38.8384 C.3       6 UNK         0.0297 
     41 CB         25.6823  -28.3659  -38.1368 C.3       6 UNK        -0.2006 
     42 C          23.7728  -29.9891  -38.7139 C.2       6 UNK         0.4892 
     43 O          24.2181  -30.7469  -37.8507 O.2       6 UNK        -0.5089 
     44 N          22.8235  -30.3299  -39.5994 N.am      7 UNK        -0.4243 
     45 CA         22.1694  -31.6357  -39.7545 C.3       7 UNK         0.0196 
     46 CB         21.3455  -32.0003  -38.5015 C.3       7 UNK        -0.2007 
     47 C          23.1156  -32.7717  -40.1967 C.2       7 UNK         0.5020 
     48 O          22.7637  -33.9433  -40.0491 O.2       7 UNK        -0.5147 
     49 N          24.2682  -32.4284  -40.7967 N.am      8 UNK        -0.4734 
     50 CA         25.2268  -33.3822  -41.3770 C.3       8 UNK         0.0238 
     51 CB         26.5256  -32.6464  -41.7422 C.3       8 UNK        -0.1912 
     52 C          24.6851  -34.1543  -42.5966 C.2       8 UNK         0.5038 
     53 O          25.2896  -35.1506  -42.9956 O.2       8 UNK        -0.5046 
     54 N          23.5557  -33.6943  -43.1498 N.am      9 UNK        -0.4200 
     55 CA         22.7498  -34.3866  -44.1613 C.3       9 UNK         0.0839 
     56 C          22.1206  -35.7341  -43.6915 C.2       9 UNK         0.5513 
     57 N          22.0282  -36.0121  -42.3949 N.am      9 UNK        -0.7519 
     58 O          21.7185  -36.5430  -44.5238 O.2       9 UNK        -0.4960 
     59 C59        21.6861  -33.4346  -44.7699 C.3       10 UNK        -0.0876 
     60 S60        20.4614  -32.8188  -43.5547 S.3       10 UNK        -0.2414 
     61 C61        20.4860  -31.0267  -43.8564 C.3       10 UNK         0.0169 
     62 H62        15.3143  -21.3569  -44.9601 H         1 UNK         0.0903 
     63 H63        13.8963  -21.8312  -45.8995 H         1 UNK         0.0903 
     64 H64        14.1052  -22.4299  -44.2529 H         1 UNK         0.0903 
     65 H65        14.8431  -24.5394  -44.1690 H         1 UNK         0.3096 
     66 H66        16.0984  -25.7941  -46.4850 H         1 UNK         0.1121 
     67 H67        15.6051  -27.1644  -43.8092 H         1 UNK         0.0849 
     68 H68        14.2765  -26.8411  -44.8790 H         1 UNK         0.0849 
     69 H69        15.5808  -30.7680  -45.1614 H         1 UNK         0.0865 
     70 H70        14.7318  -29.7316  -44.0461 H         1 UNK         0.0865 
     71 H71        18.1116  -30.8499  -45.1595 H         1 UNK         0.1346 
     72 H72        20.0154  -29.7604  -41.4766 H         1 UNK         0.1412 
     73 H73        15.9058  -28.7472  -42.1439 H         1 UNK         0.1426 
     74 H74        18.7948  -28.5772  -39.7495 H         1 UNK         0.0716 
     75 H75        17.0799  -28.8919  -39.7413 H         1 UNK         0.0716 
     76 H76        19.5006  -26.0012  -39.3807 H         1 UNK         0.0695 
     77 H77        19.0168  -24.7948  -40.5444 H         1 UNK         0.0695 
     78 H78        20.3599  -27.4564  -41.1973 H         1 UNK         0.0983 
     79 H79        18.9962  -25.6949  -43.0120 H         1 UNK         0.3095 
     80 H80        20.2170  -25.6814  -45.5517 H         1 UNK         0.0454 
     81 H81        20.0483  -27.4453  -47.2868 H         1 UNK         0.0851 
     82 H82        20.0305  -28.6937  -46.0416 H         1 UNK         0.0851 
     83 H83        21.4622  -27.7024  -46.2844 H         1 UNK         0.0851 
     84 H84        17.9481  -27.3794  -45.8760 H         1 UNK         0.2976 
     85 H85        21.5073  -24.7087  -42.8501 H         1 UNK         0.3116 
     86 H86        23.6465  -23.8754  -41.1760 H         1 UNK         0.0646 
     87 H87        24.6188  -23.0290  -43.3209 H         1 UNK         0.0847 
     88 H88        22.9191  -22.6140  -43.1919 H         1 UNK         0.0847 
     89 H89        23.4289  -23.9413  -44.2376 H         1 UNK         0.0847 
     90 H90        23.2097  -26.8570  -42.9658 H         1 UNK         0.3040 
     91 H91        26.0122  -27.6687  -42.9233 H         1 UNK         0.1015 
     92 H92        24.3736  -28.4915  -44.6514 H         1 UNK         0.0786 
     93 H93        23.4564  -29.3024  -43.3839 H         1 UNK         0.0786 
     94 H94        25.0974  -29.8117  -43.7490 H         1 UNK         0.0786 
     95 H95        23.7979  -27.2608  -40.4188 H         1 UNK         0.3172 
     96 H96        23.5990  -27.9116  -38.3290 H         1 UNK         0.0595 
     97 H97        26.4454  -29.0259  -38.5506 H         1 UNK         0.0839 
     98 H98        25.6072  -28.5858  -37.0712 H         1 UNK         0.0839 
     99 H99        26.0392  -27.3402  -38.2299 H         1 UNK         0.0839 
    100 H100       22.5516  -29.6218  -40.2659 H         1 UNK         0.2998 
    101 H101       21.4631  -31.5185  -40.5773 H         1 UNK         0.0822 
    102 H102       21.9839  -32.2152  -37.6442 H         1 UNK         0.0787 
    103 H103       20.6680  -31.1932  -38.2230 H         1 UNK         0.0787 
    104 H104       20.7341  -32.8861  -38.6789 H         1 UNK         0.0787 
    105 H105       24.5201  -31.4484  -40.8541 H         1 UNK         0.3055 
    106 H106       25.4593  -34.1255  -40.6111 H         1 UNK         0.1106 
    107 H107       27.2771  -33.3409  -42.1202 H         1 UNK         0.0828 
    108 H108       26.3595  -31.8949  -42.5149 H         1 UNK         0.0828 
    109 H109       26.9569  -32.1466  -40.8746 H         1 UNK         0.0828 
    110 H110       23.1323  -32.8768  -42.7397 H         1 UNK         0.2931 
    111 H111       23.4366  -34.6497  -44.9680 H         1 UNK         0.0412 
    112 H112       22.3316  -35.3426  -41.6991 H         1 UNK         0.3472 
    113 H113       21.6227  -36.8881  -42.1060 H         1 UNK         0.3472 
    114 H114       22.1904  -32.5895  -45.2408 H         1 UNK         0.0970 
    115 H115       21.1468  -33.9345  -45.5768 H         1 UNK         0.0970 
    116 H116       21.3534  -30.5854  -43.3640 H         1 UNK         0.0612 
    117 H117       20.6019  -30.8329  -44.9235 H         1 UNK         0.0612 
@<TRIPOS>BOND
     1    1    2 1    
     2    1   62 1    
     3    1   63 1    
     4    1   64 1    
     5    2    3 2    
     6    2    4 am   BACKBONE|DICT|INTERRES
     7    4    5 1    
     8    4   65 1    
     9    5    6 1    
    10    5   25 1    
    11    5   66 1    
    12    6    7 1    
    13    6   67 1    
    14    6   68 1    
    15    7    8 1    
    16    8    9 1    
    17    8   69 1    
    18    8   70 1    
    19    9   10 ar   
    20    9   14 ar   
    21   10   11 ar   
    22   10   71 1    
    23   11   12 ar   
    24   11   61 1    
    25   12   13 ar   
    26   12   72 1    
    27   13   14 ar   
    28   13   15 1    
    29   14   73 1    
    30   15   16 1    
    31   15   74 1    
    32   15   75 1    
    33   16   17 1    
    34   17   18 1    
    35   17   76 1    
    36   17   77 1    
    37   18   19 1    
    38   18   27 1    
    39   18   78 1    
    40   19   20 am   BACKBONE|DICT|INTERRES
    41   19   79 1    
    42   20   21 2    
    43   20   22 1    
    44   22   23 1    
    45   22   24 1    
    46   22   80 1    
    47   23   81 1    
    48   23   82 1    
    49   23   83 1    
    50   24   25 am   BACKBONE|DICT|INTERRES
    51   24   84 1    
    52   25   26 2    
    53   27   28 2    
    54   27   29 am   BACKBONE|DICT|INTERRES
    55   29   30 1    
    56   29   85 1    
    57   30   31 1    
    58   30   32 1    
    59   30   86 1    
    60   31   87 1    
    61   31   88 1    
    62   31   89 1    
    63   32   33 2    
    64   32   34 am   BACKBONE|DICT|INTERRES
    65   34   35 1    
    66   34   90 1    
    67   35   36 1    
    68   35   37 1    
    69   35   91 1    
    70   36   92 1    
    71   36   93 1    
    72   36   94 1    
    73   37   38 2    
    74   37   39 am   BACKBONE|DICT|INTERRES
    75   39   40 1    
    76   39   95 1    
    77   40   41 1    
    78   40   42 1    
    79   40   96 1    
    80   41   97 1    
    81   41   98 1    
    82   41   99 1    
    83   42   43 2    
    84   42   44 am   BACKBONE|DICT|INTERRES
    85   44   45 1    
    86   44  100 1    
    87   45   46 1    
    88   45   47 1    
    89   45  101 1    
    90   46  102 1    
    91   46  103 1    
    92   46  104 1    
    93   47   48 2    
    94   47   49 am   BACKBONE|DICT|INTERRES
    95   49   50 1    
    96   49  105 1    
    97   50   51 1    
    98   50   52 1    
    99   50  106 1    
   100   51  107 1    
   101   51  108 1    
   102   51  109 1    
   103   52   53 2    
   104   52   54 am   BACKBONE|DICT|INTERRES
   105   54   55 1    
   106   54  110 1    
   107   55   56 1    
   108   55   59 1    
   109   55  111 1    
   110   56   57 am   BACKBONE|DICT|INTERRES
   111   56   58 2    
   112   57  112 1    
   113   57  113 1    
   114   59   60 1    
   115   59  114 1    
   116   59  115 1    
   117   60   61 1    
   118   61  116 1    
   119   61  117 1    
@<TRIPOS>SUBSTRUCTURE
     1 UNK         1 GROUP             0       ****    0 ROOT    
