@<TRIPOS>MOLECULE
3R8
117   119    1
SMALL
USER_CHARGES


@<TRIPOS>ATOM
      1 CA         14.0139  -30.4236  -48.3260 C.3       0 UNK        -0.2013 
      2 C          14.4280  -29.7361  -47.0335 C.2       0 UNK         0.4866 
      3 O          14.2815  -30.3153  -45.9569 O.2       0 UNK        -0.5176 
      4 N          14.9429  -28.5062  -47.1293 N.am      1 UNK        -0.4884 
      5 CA         15.4151  -27.7102  -46.0009 C.3       1 UNK         0.0853 
      6 C6         14.2616  -26.9175  -45.3361 C.3       10 UNK        -0.0849 
      7 S7         14.7388  -26.0537  -43.8004 S.3       10 UNK        -0.2776 
      8 C8         14.4763  -27.3348  -42.5312 C.3       10 UNK         0.0316 
      9 C9         15.8025  -27.9128  -42.0624 C.ar      10 UNK        -0.0863 
     10 C10        16.2919  -29.1068  -42.6009 C.ar      10 UNK        -0.1009 
     11 C11        17.5267  -29.6131  -42.1861 C.ar      10 UNK        -0.0712 
     12 C12        18.2529  -28.9400  -41.2003 C.ar      10 UNK        -0.0894 
     13 C13        17.7741  -27.7480  -40.6514 C.ar      10 UNK        -0.0745 
     14 C14        16.5468  -27.2403  -41.0876 C.ar      10 UNK        -0.0972 
     15 C15        18.5772  -27.0044  -39.5894 C.3       10 UNK         0.0209 
     16 S16        20.2931  -26.6438  -40.0978 S.3       10 UNK        -0.2568 
     17 C17        20.0540  -25.7086  -41.6464 C.3       10 UNK        -0.0983 
     18 CA         20.5994  -26.4859  -42.8740 C.3       3 UNK         0.0876 
     19 N          19.8442  -26.1699  -44.0902 N.am      3 UNK        -0.4424 
     20 C          20.0355  -26.7256  -45.2944 C.2       2 UNK         0.4918 
     21 O          20.9136  -27.5500  -45.5521 O.2       2 UNK        -0.4875 
     22 CA         19.0009  -26.3582  -46.3630 C.3       2 UNK         0.0481 
     23 CB         19.4611  -26.7294  -47.7894 C.3       2 UNK        -0.1831 
     24 N          17.7683  -27.0582  -46.0131 N.am      2 UNK        -0.4498 
     25 C          16.5547  -26.8230  -46.5220 C.2       1 UNK         0.5027 
     26 O          16.3164  -25.9777  -47.3878 O.2       1 UNK        -0.4969 
     27 C          22.1192  -26.2720  -43.0538 C.2       3 UNK         0.5005 
     28 O          22.5427  -25.1732  -43.4248 O.2       3 UNK        -0.5279 
     29 N          22.8973  -27.3270  -42.7968 N.am      4 UNK        -0.4463 
     30 CA         24.3560  -27.3462  -42.8441 C.3       4 UNK         0.0283 
     31 CB         24.8040  -28.7593  -43.2574 C.3       4 UNK        -0.1875 
     32 C          24.9518  -26.9612  -41.4804 C.2       4 UNK         0.4949 
     33 O          24.2399  -26.9121  -40.4750 O.2       4 UNK        -0.5039 
     34 N          26.2690  -26.7176  -41.4664 N.am      5 UNK        -0.4663 
     35 CA         27.0400  -26.3617  -40.2681 C.3       5 UNK         0.0242 
     36 CB         28.4333  -25.8721  -40.6965 C.3       5 UNK        -0.1982 
     37 C          27.1652  -27.4990  -39.2349 C.2       5 UNK         0.5017 
     38 O          27.4238  -27.2179  -38.0638 O.2       5 UNK        -0.5012 
     39 N          26.9844  -28.7488  -39.6753 N.am      6 UNK        -0.4439 
     40 CA         26.9874  -29.9573  -38.8592 C.3       6 UNK         0.0297 
     41 CB         28.4334  -30.4341  -38.6289 C.3       6 UNK        -0.2006 
     42 C          26.1603  -31.0285  -39.5789 C.2       6 UNK         0.4892 
     43 O          25.9886  -30.9442  -40.7974 O.2       6 UNK        -0.5089 
     44 N          25.6818  -32.0162  -38.8083 N.am      7 UNK        -0.4243 
     45 CA         24.9086  -33.1902  -39.2443 C.3       7 UNK         0.0196 
     46 CB         25.7635  -34.1017  -40.1518 C.3       7 UNK        -0.2007 
     47 C          23.5379  -32.8575  -39.8711 C.2       7 UNK         0.5020 
     48 O          23.0286  -33.6491  -40.6671 O.2       7 UNK        -0.5147 
     49 N          22.9578  -31.7084  -39.4923 N.am      8 UNK        -0.4734 
     50 CA         21.6810  -31.1397  -39.9467 C.3       8 UNK         0.0238 
     51 CB         20.4850  -32.0140  -39.5123 C.3       8 UNK        -0.1912 
     52 C          21.6682  -30.8197  -41.4518 C.2       8 UNK         0.5038 
     53 O          21.7844  -29.6503  -41.8097 O.2       8 UNK        -0.5046 
     54 N          21.5326  -31.8512  -42.2894 N.am      9 UNK        -0.4200 
     55 CA         21.6025  -31.7941  -43.7576 C.3       9 UNK         0.0839 
     56 C          22.6000  -32.8352  -44.3452 C.2       9 UNK         0.5513 
     57 N          23.3056  -33.6278  -43.5454 N.am      9 UNK        -0.7519 
     58 O          22.7551  -32.9164  -45.5609 O.2       9 UNK        -0.4960 
     59 C59        20.1951  -31.9086  -44.4113 C.3       10 UNK        -0.0876 
     60 S60        19.2001  -30.3963  -44.1985 S.3       10 UNK        -0.2414 
     61 C61        18.1039  -30.8622  -42.8275 C.3       10 UNK         0.0169 
     62 H62        12.9522  -30.6675  -48.2972 H         1 UNK         0.0903 
     63 H63        14.1938  -29.7956  -49.1984 H         1 UNK         0.0903 
     64 H64        14.5731  -31.3500  -48.4537 H         1 UNK         0.0903 
     65 H65        15.0672  -28.0705  -48.0349 H         1 UNK         0.3096 
     66 H66        15.8359  -28.3888  -45.2589 H         1 UNK         0.1121 
     67 H67        13.4269  -27.5845  -45.1161 H         1 UNK         0.0849 
     68 H68        13.8626  -26.1771  -46.0320 H         1 UNK         0.0849 
     69 H69        13.9539  -26.8875  -41.6840 H         1 UNK         0.0865 
     70 H70        13.8218  -28.1252  -42.9015 H         1 UNK         0.0865 
     71 H71        15.7228  -29.6347  -43.3541 H         1 UNK         0.1346 
     72 H72        19.2102  -29.3244  -40.8807 H         1 UNK         0.1412 
     73 H73        16.1697  -26.3143  -40.6747 H         1 UNK         0.1426 
     74 H74        18.6002  -27.6067  -38.6804 H         1 UNK         0.0716 
     75 H75        18.0909  -26.0646  -39.3231 H         1 UNK         0.0716 
     76 H76        18.9883  -25.5076  -41.7640 H         1 UNK         0.0695 
     77 H77        20.5217  -24.7270  -41.5477 H         1 UNK         0.0695 
     78 H78        20.4224  -27.5515  -42.7105 H         1 UNK         0.0983 
     79 H79        19.0946  -25.5028  -43.9844 H         1 UNK         0.3095 
     80 H80        18.8296  -25.2808  -46.3162 H         1 UNK         0.0454 
     81 H81        19.5764  -27.8074  -47.9081 H         1 UNK         0.0851 
     82 H82        20.4235  -26.2705  -48.0189 H         1 UNK         0.0851 
     83 H83        18.7544  -26.3841  -48.5436 H         1 UNK         0.0851 
     84 H84        17.8756  -27.7775  -45.3088 H         1 UNK         0.2976 
     85 H85        22.4579  -28.1757  -42.4351 H         1 UNK         0.3116 
     86 H86        24.7068  -26.6320  -43.5920 H         1 UNK         0.0646 
     87 H87        24.4911  -29.5094  -42.5299 H         1 UNK         0.0847 
     88 H88        25.8885  -28.8267  -43.3481 H         1 UNK         0.0847 
     89 H89        24.3826  -29.0406  -44.2227 H         1 UNK         0.0847 
     90 H90        26.7845  -26.7772  -42.3335 H         1 UNK         0.3040 
     91 H91        26.5248  -25.5361  -39.7715 H         1 UNK         0.1015 
     92 H92        28.9937  -26.6513  -41.2148 H         1 UNK         0.0786 
     93 H93        29.0237  -25.5680  -39.8308 H         1 UNK         0.0786 
     94 H94        28.3655  -25.0081  -41.3580 H         1 UNK         0.0786 
     95 H95        26.7250  -28.9034  -40.6420 H         1 UNK         0.3172 
     96 H96        26.5130  -29.7426  -37.8991 H         1 UNK         0.0595 
     97 H97        28.4579  -31.3431  -38.0266 H         1 UNK         0.0839 
     98 H98        29.0213  -29.6829  -38.1011 H         1 UNK         0.0839 
     99 H99        28.9385  -30.6527  -39.5706 H         1 UNK         0.0839 
    100 H100       25.8795  -31.9771  -37.8172 H         1 UNK         0.2998 
    101 H101       24.6844  -33.7546  -38.3379 H         1 UNK         0.0822 
    102 H102       25.2575  -35.0481  -40.3470 H         1 UNK         0.0787 
    103 H103       25.9641  -33.6371  -41.1179 H         1 UNK         0.0787 
    104 H104       26.7209  -34.3392  -39.6880 H         1 UNK         0.0787 
    105 H105       23.4813  -31.1263  -38.8535 H         1 UNK         0.3055 
    106 H106       21.5791  -30.1813  -39.4334 H         1 UNK         0.1106 
    107 H107       19.5394  -31.5563  -39.8033 H         1 UNK         0.0828 
    108 H108       20.5122  -33.0116  -39.9507 H         1 UNK         0.0828 
    109 H109       20.4611  -32.1322  -38.4291 H         1 UNK         0.0828 
    110 H110       21.5381  -32.7793  -41.8851 H         1 UNK         0.2931 
    111 H111       22.0278  -30.8315  -44.0491 H         1 UNK         0.0412 
    112 H112       23.2217  -33.5818  -42.5343 H         1 UNK         0.3472 
    113 H113       23.9470  -34.2855  -43.9591 H         1 UNK         0.3472 
    114 H114       20.2790  -32.0651  -45.4883 H         1 UNK         0.0970 
    115 H115       19.6557  -32.7755  -44.0262 H         1 UNK         0.0970 
    116 H116       17.3096  -31.5107  -43.2000 H         1 UNK         0.0612 
    117 H117       18.6573  -31.4387  -42.0861 H         1 UNK         0.0612 
@<TRIPOS>BOND
     1    1    2 1    
     2    1   62 1    
     3    1   63 1    
     4    1   64 1    
     5    2    3 2    
     6    2    4 am   BACKBONE|DICT|INTERRES
     7    4    5 1    
     8    4   65 1    
     9    5    6 1    
    10    5   25 1    
    11    5   66 1    
    12    6    7 1    
    13    6   67 1    
    14    6   68 1    
    15    7    8 1    
    16    8    9 1    
    17    8   69 1    
    18    8   70 1    
    19    9   10 ar   
    20    9   14 ar   
    21   10   11 ar   
    22   10   71 1    
    23   11   12 ar   
    24   11   61 1    
    25   12   13 ar   
    26   12   72 1    
    27   13   14 ar   
    28   13   15 1    
    29   14   73 1    
    30   15   16 1    
    31   15   74 1    
    32   15   75 1    
    33   16   17 1    
    34   17   18 1    
    35   17   76 1    
    36   17   77 1    
    37   18   19 1    
    38   18   27 1    
    39   18   78 1    
    40   19   20 am   BACKBONE|DICT|INTERRES
    41   19   79 1    
    42   20   21 2    
    43   20   22 1    
    44   22   23 1    
    45   22   24 1    
    46   22   80 1    
    47   23   81 1    
    48   23   82 1    
    49   23   83 1    
    50   24   25 am   BACKBONE|DICT|INTERRES
    51   24   84 1    
    52   25   26 2    
    53   27   28 2    
    54   27   29 am   BACKBONE|DICT|INTERRES
    55   29   30 1    
    56   29   85 1    
    57   30   31 1    
    58   30   32 1    
    59   30   86 1    
    60   31   87 1    
    61   31   88 1    
    62   31   89 1    
    63   32   33 2    
    64   32   34 am   BACKBONE|DICT|INTERRES
    65   34   35 1    
    66   34   90 1    
    67   35   36 1    
    68   35   37 1    
    69   35   91 1    
    70   36   92 1    
    71   36   93 1    
    72   36   94 1    
    73   37   38 2    
    74   37   39 am   BACKBONE|DICT|INTERRES
    75   39   40 1    
    76   39   95 1    
    77   40   41 1    
    78   40   42 1    
    79   40   96 1    
    80   41   97 1    
    81   41   98 1    
    82   41   99 1    
    83   42   43 2    
    84   42   44 am   BACKBONE|DICT|INTERRES
    85   44   45 1    
    86   44  100 1    
    87   45   46 1    
    88   45   47 1    
    89   45  101 1    
    90   46  102 1    
    91   46  103 1    
    92   46  104 1    
    93   47   48 2    
    94   47   49 am   BACKBONE|DICT|INTERRES
    95   49   50 1    
    96   49  105 1    
    97   50   51 1    
    98   50   52 1    
    99   50  106 1    
   100   51  107 1    
   101   51  108 1    
   102   51  109 1    
   103   52   53 2    
   104   52   54 am   BACKBONE|DICT|INTERRES
   105   54   55 1    
   106   54  110 1    
   107   55   56 1    
   108   55   59 1    
   109   55  111 1    
   110   56   57 am   BACKBONE|DICT|INTERRES
   111   56   58 2    
   112   57  112 1    
   113   57  113 1    
   114   59   60 1    
   115   59  114 1    
   116   59  115 1    
   117   60   61 1    
   118   61  116 1    
   119   61  117 1    
@<TRIPOS>SUBSTRUCTURE
     1 UNK         1 GROUP             0       ****    0 ROOT    
