@<TRIPOS>MOLECULE
3R8
117   119    1
SMALL
USER_CHARGES


@<TRIPOS>ATOM
      1 CA         18.1588  -28.3787  -41.9432 C.3       0 UNK        -0.2013 
      2 C          17.3016  -27.3767  -42.7002 C.2       0 UNK         0.4866 
      3 O          16.8242  -26.4085  -42.1093 O.2       0 UNK        -0.5176 
      4 N          17.1205  -27.5874  -44.0116 N.am      1 UNK        -0.4884 
      5 CA         16.3672  -26.6942  -44.9105 C.3       1 UNK         0.0853 
      6 C6         16.0546  -27.3699  -46.2686 C.3       10 UNK        -0.0849 
      7 S7         15.1239  -28.9272  -46.0868 S.3       10 UNK        -0.2776 
      8 C8         16.2660  -30.1303  -46.8425 C.3       10 UNK         0.0316 
      9 C9         17.5018  -30.3891  -45.9891 C.ar      10 UNK        -0.0863 
     10 C10        17.3707  -31.0036  -44.7410 C.ar      10 UNK        -0.1009 
     11 C11        18.4988  -31.3106  -43.9760 C.ar      10 UNK        -0.0712 
     12 C12        19.7706  -30.9981  -44.4671 C.ar      10 UNK        -0.0894 
     13 C13        19.9178  -30.3865  -45.7175 C.ar      10 UNK        -0.0745 
     14 C14        18.7784  -30.0755  -46.4685 C.ar      10 UNK        -0.0972 
     15 C15        21.3050  -30.1331  -46.2977 C.3       10 UNK         0.0209 
     16 S16        21.7787  -28.3749  -46.2771 S.3       10 UNK        -0.2568 
     17 C17        22.2334  -28.1307  -44.5261 C.3       10 UNK        -0.0983 
     18 CA         22.2522  -26.6373  -44.0928 C.3       3 UNK         0.0876 
     19 N          21.0168  -25.9678  -44.5206 N.am      3 UNK        -0.4424 
     20 C          20.7343  -24.6569  -44.5628 C.2       2 UNK         0.4918 
     21 O          21.4926  -23.7780  -44.1552 O.2       2 UNK        -0.4875 
     22 CA         19.3630  -24.2644  -45.1340 C.3       2 UNK         0.0481 
     23 CB         19.4966  -23.8651  -46.6161 C.3       2 UNK        -0.1831 
     24 N          18.4158  -25.3668  -44.9680 N.am      2 UNK        -0.4498 
     25 C          17.0937  -25.3537  -45.1614 C.2       1 UNK         0.5027 
     26 O          16.4557  -24.3665  -45.5294 O.2       1 UNK        -0.4969 
     27 C          22.5824  -26.5023  -42.5819 C.2       3 UNK         0.5005 
     28 O          23.1461  -27.4335  -42.0017 O.2       3 UNK        -0.5279 
     29 N          22.2353  -25.3677  -41.9596 N.am      4 UNK        -0.4463 
     30 CA         22.4186  -25.0577  -40.5400 C.3       4 UNK         0.0283 
     31 CB         21.8526  -23.6578  -40.2496 C.3       4 UNK        -0.1875 
     32 C          23.8927  -25.1610  -40.1159 C.2       4 UNK         0.4949 
     33 O          24.7123  -24.3587  -40.5650 O.2       4 UNK        -0.5039 
     34 N          24.1912  -26.1849  -39.3041 N.am      5 UNK        -0.4663 
     35 CA         25.5167  -26.6072  -38.8270 C.3       5 UNK         0.0242 
     36 CB         26.1989  -25.4918  -38.0059 C.3       5 UNK        -0.1982 
     37 C          26.4473  -27.1748  -39.9213 C.2       5 UNK         0.5017 
     38 O          27.6009  -27.4818  -39.6163 O.2       5 UNK        -0.5012 
     39 N          25.9443  -27.3369  -41.1527 N.am      6 UNK        -0.4439 
     40 CA         26.6493  -27.9677  -42.2709 C.3       6 UNK         0.0297 
     41 CB         26.3444  -27.2010  -43.5679 C.3       6 UNK        -0.2006 
     42 C          26.2542  -29.4459  -42.4144 C.2       6 UNK         0.4892 
     43 O          27.0759  -30.2455  -42.8640 O.2       6 UNK        -0.5089 
     44 N          25.0211  -29.7860  -42.0219 N.am      7 UNK        -0.4243 
     45 CA         24.4739  -31.1375  -41.9955 C.3       7 UNK         0.0196 
     46 CB         23.8434  -31.4652  -43.3621 C.3       7 UNK        -0.2007 
     47 C          23.4435  -31.2343  -40.8626 C.2       7 UNK         0.5020 
     48 O          23.1354  -30.2316  -40.2132 O.2       7 UNK        -0.5147 
     49 N          22.9174  -32.4427  -40.6543 N.am      8 UNK        -0.4734 
     50 CA         21.8387  -32.7422  -39.7184 C.3       8 UNK         0.0238 
     51 CB         22.4279  -33.1489  -38.3560 C.3       8 UNK        -0.1912 
     52 C          20.9850  -33.8669  -40.3131 C.2       8 UNK         0.5038 
     53 O          21.4942  -34.6547  -41.1159 O.2       8 UNK        -0.5046 
     54 N          19.7177  -33.9211  -39.8970 N.am      9 UNK        -0.4200 
     55 CA         18.7297  -34.9314  -40.2933 C.3       9 UNK         0.0839 
     56 C          18.1124  -35.5815  -39.0297 C.2       9 UNK         0.5513 
     57 N          17.7271  -36.8474  -39.1091 N.am      9 UNK        -0.7519 
     58 O          17.9494  -34.9425  -37.9913 O.2       9 UNK        -0.4960 
     59 C59        17.6210  -34.3228  -41.1915 C.3       10 UNK        -0.0876 
     60 S60        18.2343  -33.8020  -42.8301 S.3       10 UNK        -0.2414 
     61 C61        18.3314  -31.9971  -42.6293 C.3       10 UNK         0.0169 
     62 H62        17.5322  -29.1515  -41.4995 H         1 UNK         0.0903 
     63 H63        18.8899  -28.8523  -42.5970 H         1 UNK         0.0903 
     64 H64        18.7059  -27.8817  -41.1422 H         1 UNK         0.0903 
     65 H65        17.4748  -28.4346  -44.4379 H         1 UNK         0.3096 
     66 H66        15.4195  -26.4526  -44.4234 H         1 UNK         0.1121 
     67 H67        15.4547  -26.7050  -46.8937 H         1 UNK         0.0849 
     68 H68        16.9750  -27.5543  -46.8262 H         1 UNK         0.0849 
     69 H69        15.7352  -31.0731  -46.9825 H         1 UNK         0.0865 
     70 H70        16.5414  -29.7900  -47.8421 H         1 UNK         0.0865 
     71 H71        16.3866  -31.2611  -44.3726 H         1 UNK         0.1346 
     72 H72        20.6441  -31.2573  -43.8855 H         1 UNK         0.1412 
     73 H73        18.8928  -29.6195  -47.4428 H         1 UNK         0.1426 
     74 H74        21.3219  -30.4805  -47.3317 H         1 UNK         0.0716 
     75 H75        22.0612  -30.7203  -45.7757 H         1 UNK         0.0716 
     76 H76        23.2150  -28.5832  -44.3754 H         1 UNK         0.0695 
     77 H77        21.5340  -28.6933  -43.9048 H         1 UNK         0.0695 
     78 H78        23.0731  -26.1487  -44.6214 H         1 UNK         0.0983 
     79 H79        20.3783  -26.5941  -44.9843 H         1 UNK         0.3095 
     80 H80        18.9972  -23.4087  -44.5633 H         1 UNK         0.0454 
     81 H81        20.2405  -23.0773  -46.7424 H         1 UNK         0.0851 
     82 H82        18.5582  -23.4829  -47.0172 H         1 UNK         0.0851 
     83 H83        19.8061  -24.7087  -47.2342 H         1 UNK         0.0851 
     84 H84        18.7872  -26.2141  -44.5670 H         1 UNK         0.2976 
     85 H85        21.8628  -24.6251  -42.5450 H         1 UNK         0.3116 
     86 H86        21.8332  -25.7816  -39.9691 H         1 UNK         0.0646 
     87 H87        21.9723  -23.3993  -39.1967 H         1 UNK         0.0847 
     88 H88        20.7878  -23.6042  -40.4770 H         1 UNK         0.0847 
     89 H89        22.3592  -22.8882  -40.8338 H         1 UNK         0.0847 
     90 H90        23.4338  -26.8041  -39.0454 H         1 UNK         0.3040 
     91 H91        25.3312  -27.4411  -38.1478 H         1 UNK         0.1015 
     92 H92        27.0995  -25.8627  -37.5150 H         1 UNK         0.0786 
     93 H93        25.5398  -25.1135  -37.2245 H         1 UNK         0.0786 
     94 H94        26.4978  -24.6500  -38.6310 H         1 UNK         0.0786 
     95 H95        24.9673  -27.1052  -41.3065 H         1 UNK         0.3172 
     96 H96        27.7275  -27.9241  -42.1037 H         1 UNK         0.0595 
     97 H97        25.2895  -27.2539  -43.8337 H         1 UNK         0.0839 
     98 H98        26.9094  -27.6147  -44.4043 H         1 UNK         0.0839 
     99 H99        26.6172  -26.1491  -43.4808 H         1 UNK         0.0839 
    100 H100       24.3949  -29.0760  -41.6518 H         1 UNK         0.2998 
    101 H101       25.2747  -31.8483  -41.7800 H         1 UNK         0.0822 
    102 H102       24.5561  -31.3268  -44.1753 H         1 UNK         0.0787 
    103 H103       22.9824  -30.8285  -43.5590 H         1 UNK         0.0787 
    104 H104       23.5020  -32.4999  -43.4068 H         1 UNK         0.0787 
    105 H105       23.1677  -33.2168  -41.2582 H         1 UNK         0.3055 
    106 H106       21.2057  -31.8597  -39.5950 H         1 UNK         0.1106 
    107 H107       23.0642  -34.0308  -38.4398 H         1 UNK         0.0828 
    108 H108       23.0262  -32.3444  -37.9277 H         1 UNK         0.0828 
    109 H109       21.6390  -33.3813  -37.6395 H         1 UNK         0.0828 
    110 H110       19.4036  -33.2849  -39.1775 H         1 UNK         0.2931 
    111 H111       19.2245  -35.7281  -40.8531 H         1 UNK         0.0412 
    112 H112       17.8484  -37.3776  -39.9587 H         1 UNK         0.3472 
    113 H113       17.3113  -37.2853  -38.3014 H         1 UNK         0.3472 
    114 H114       16.8359  -35.0599  -41.3716 H         1 UNK         0.0970 
    115 H115       17.1311  -33.4868  -40.6892 H         1 UNK         0.0970 
    116 H116       19.1610  -31.7480  -41.9660 H         1 UNK         0.0612 
    117 H117       17.4240  -31.6323  -42.1459 H         1 UNK         0.0612 
@<TRIPOS>BOND
     1    1    2 1    
     2    1   62 1    
     3    1   63 1    
     4    1   64 1    
     5    2    3 2    
     6    2    4 am   BACKBONE|DICT|INTERRES
     7    4    5 1    
     8    4   65 1    
     9    5    6 1    
    10    5   25 1    
    11    5   66 1    
    12    6    7 1    
    13    6   67 1    
    14    6   68 1    
    15    7    8 1    
    16    8    9 1    
    17    8   69 1    
    18    8   70 1    
    19    9   10 ar   
    20    9   14 ar   
    21   10   11 ar   
    22   10   71 1    
    23   11   12 ar   
    24   11   61 1    
    25   12   13 ar   
    26   12   72 1    
    27   13   14 ar   
    28   13   15 1    
    29   14   73 1    
    30   15   16 1    
    31   15   74 1    
    32   15   75 1    
    33   16   17 1    
    34   17   18 1    
    35   17   76 1    
    36   17   77 1    
    37   18   19 1    
    38   18   27 1    
    39   18   78 1    
    40   19   20 am   BACKBONE|DICT|INTERRES
    41   19   79 1    
    42   20   21 2    
    43   20   22 1    
    44   22   23 1    
    45   22   24 1    
    46   22   80 1    
    47   23   81 1    
    48   23   82 1    
    49   23   83 1    
    50   24   25 am   BACKBONE|DICT|INTERRES
    51   24   84 1    
    52   25   26 2    
    53   27   28 2    
    54   27   29 am   BACKBONE|DICT|INTERRES
    55   29   30 1    
    56   29   85 1    
    57   30   31 1    
    58   30   32 1    
    59   30   86 1    
    60   31   87 1    
    61   31   88 1    
    62   31   89 1    
    63   32   33 2    
    64   32   34 am   BACKBONE|DICT|INTERRES
    65   34   35 1    
    66   34   90 1    
    67   35   36 1    
    68   35   37 1    
    69   35   91 1    
    70   36   92 1    
    71   36   93 1    
    72   36   94 1    
    73   37   38 2    
    74   37   39 am   BACKBONE|DICT|INTERRES
    75   39   40 1    
    76   39   95 1    
    77   40   41 1    
    78   40   42 1    
    79   40   96 1    
    80   41   97 1    
    81   41   98 1    
    82   41   99 1    
    83   42   43 2    
    84   42   44 am   BACKBONE|DICT|INTERRES
    85   44   45 1    
    86   44  100 1    
    87   45   46 1    
    88   45   47 1    
    89   45  101 1    
    90   46  102 1    
    91   46  103 1    
    92   46  104 1    
    93   47   48 2    
    94   47   49 am   BACKBONE|DICT|INTERRES
    95   49   50 1    
    96   49  105 1    
    97   50   51 1    
    98   50   52 1    
    99   50  106 1    
   100   51  107 1    
   101   51  108 1    
   102   51  109 1    
   103   52   53 2    
   104   52   54 am   BACKBONE|DICT|INTERRES
   105   54   55 1    
   106   54  110 1    
   107   55   56 1    
   108   55   59 1    
   109   55  111 1    
   110   56   57 am   BACKBONE|DICT|INTERRES
   111   56   58 2    
   112   57  112 1    
   113   57  113 1    
   114   59   60 1    
   115   59  114 1    
   116   59  115 1    
   117   60   61 1    
   118   61  116 1    
   119   61  117 1    
@<TRIPOS>SUBSTRUCTURE
     1 UNK         1 GROUP             0       ****    0 ROOT    
