@<TRIPOS>MOLECULE
3R8
117   119    1
SMALL
USER_CHARGES


@<TRIPOS>ATOM
      1 CA         19.9784  -24.8060  -50.1506 C.3       0 UNK        -0.2013 
      2 C          20.5144  -24.9450  -48.7334 C.2       0 UNK         0.4866 
      3 O          21.4515  -24.2380  -48.3606 O.2       0 UNK        -0.5176 
      4 N          19.9351  -25.8571  -47.9436 N.am      1 UNK        -0.4884 
      5 CA         20.2916  -26.0926  -46.5419 C.3       1 UNK         0.0853 
      6 C6         19.6274  -27.3759  -45.9843 C.3       10 UNK        -0.0849 
      7 S7         20.1361  -28.9240  -46.8034 S.3       10 UNK        -0.2776 
      8 C8         20.6185  -29.9719  -45.3756 C.3       10 UNK         0.0316 
      9 C9         19.5345  -30.2572  -44.3249 C.ar      10 UNK        -0.0863 
     10 C10        19.9048  -30.9323  -43.1557 C.ar      10 UNK        -0.1009 
     11 C11        18.9685  -31.2098  -42.1526 C.ar      10 UNK        -0.0712 
     12 C12        17.6590  -30.7467  -42.2941 C.ar      10 UNK        -0.0894 
     13 C13        17.2805  -30.0350  -43.4337 C.ar      10 UNK        -0.0745 
     14 C14        18.2018  -29.8463  -44.4659 C.ar      10 UNK        -0.0972 
     15 C15        15.9052  -29.3907  -43.5176 C.3       10 UNK         0.0209 
     16 S16        16.0139  -27.5800  -43.2839 S.3       10 UNK        -0.2568 
     17 C17        16.7307  -27.4482  -41.6078 C.3       10 UNK        -0.0983 
     18 CA         18.2648  -27.2242  -41.6380 C.3       3 UNK         0.0876 
     19 N          18.6383  -25.9276  -42.2159 N.am      3 UNK        -0.4424 
     20 C          19.8967  -25.5188  -42.4229 C.2       2 UNK         0.4918 
     21 O          20.8974  -26.1568  -42.0814 O.2       2 UNK        -0.4875 
     22 CA         20.0871  -24.2551  -43.2705 C.3       2 UNK         0.0481 
     23 CB         21.1073  -23.2911  -42.6428 C.3       2 UNK        -0.1831 
     24 N          20.6013  -24.7516  -44.5407 N.am      2 UNK        -0.4498 
     25 C          19.8559  -24.9235  -45.6362 C.2       1 UNK         0.5027 
     26 O          18.8076  -24.3145  -45.8656 O.2       1 UNK        -0.4969 
     27 C          18.8912  -27.4445  -40.2463 C.2       3 UNK         0.5005 
     28 O          18.6710  -26.6350  -39.3435 O.2       3 UNK        -0.5279 
     29 N          19.6810  -28.5233  -40.1319 N.am      4 UNK        -0.4463 
     30 CA         20.4597  -28.9651  -38.9660 C.3       4 UNK         0.0283 
     31 CB         19.5515  -29.2174  -37.7439 C.3       4 UNK        -0.1875 
     32 C          21.6706  -28.0758  -38.6169 C.2       4 UNK         0.4949 
     33 O          22.3250  -28.3406  -37.6075 O.2       4 UNK        -0.5039 
     34 N          21.9713  -27.0665  -39.4448 N.am      5 UNK        -0.4663 
     35 CA         23.1199  -26.1719  -39.2868 C.3       5 UNK         0.0242 
     36 CB         22.6307  -24.7154  -39.2418 C.3       5 UNK        -0.1982 
     37 C          24.1390  -26.3724  -40.4163 C.2       5 UNK         0.5017 
     38 O          25.3390  -26.4019  -40.1421 O.2       5 UNK        -0.5012 
     39 N          23.6542  -26.5145  -41.6589 N.am      6 UNK        -0.4439 
     40 CA         24.4802  -26.7260  -42.8516 C.3       6 UNK         0.0297 
     41 CB         23.6476  -26.4311  -44.1096 C.3       6 UNK        -0.2006 
     42 C          25.0858  -28.1372  -42.9326 C.2       6 UNK         0.4892 
     43 O          26.1813  -28.2908  -43.4740 O.2       6 UNK        -0.5089 
     44 N          24.3682  -29.1336  -42.4032 N.am      7 UNK        -0.4243 
     45 CA         24.7502  -30.5410  -42.3720 C.3       7 UNK         0.0196 
     46 CB         24.5651  -31.1752  -43.7654 C.3       7 UNK        -0.2007 
     47 C          23.8704  -31.2539  -41.3439 C.2       7 UNK         0.5020 
     48 O          22.7723  -30.7781  -41.0474 O.2       7 UNK        -0.5147 
     49 N          24.3249  -32.4226  -40.8765 N.am      8 UNK        -0.4734 
     50 CA         23.5997  -33.3115  -39.9576 C.3       8 UNK         0.0238 
     51 CB         24.6218  -34.1076  -39.1242 C.3       8 UNK        -0.1912 
     52 C          22.5933  -34.2282  -40.6888 C.2       8 UNK         0.5038 
     53 O          22.4607  -35.4022  -40.3400 O.2       8 UNK        -0.5046 
     54 N          21.9176  -33.6688  -41.6994 N.am      9 UNK        -0.4200 
     55 CA         20.8974  -34.2912  -42.5592 C.3       9 UNK         0.0839 
     56 C          21.4561  -35.3794  -43.5286 C.2       9 UNK         0.5513 
     57 N          22.7630  -35.4658  -43.7470 N.am      9 UNK        -0.7519 
     58 O          20.6936  -36.1382  -44.1220 O.2       9 UNK        -0.4960 
     59 C59        19.6346  -34.7770  -41.7866 C.3       10 UNK        -0.0876 
     60 S60        18.6894  -33.6130  -40.7232 S.3       10 UNK        -0.2414 
     61 C61        19.3741  -31.9272  -40.8719 C.3       10 UNK         0.0169 
     62 H62        19.1621  -25.5006  -50.3481 H         1 UNK         0.0903 
     63 H63        19.6094  -23.7939  -50.3141 H         1 UNK         0.0903 
     64 H64        20.7711  -25.0009  -50.8725 H         1 UNK         0.0903 
     65 H65        19.1666  -26.4094  -48.2969 H         1 UNK         0.3096 
     66 H66        21.3775  -26.1987  -46.4843 H         1 UNK         0.1121 
     67 H67        18.5414  -27.2934  -46.0647 H         1 UNK         0.0849 
     68 H68        19.8382  -27.4776  -44.9174 H         1 UNK         0.0849 
     69 H69        20.9778  -30.9256  -45.7647 H         1 UNK         0.0865 
     70 H70        21.4724  -29.5028  -44.8839 H         1 UNK         0.0865 
     71 H71        20.9337  -31.2352  -43.0259 H         1 UNK         0.1346 
     72 H72        16.9462  -30.9089  -41.4968 H         1 UNK         0.1412 
     73 H73        17.8722  -29.3249  -45.3508 H         1 UNK         0.1426 
     74 H74        15.2286  -29.8132  -42.7730 H         1 UNK         0.0716 
     75 H75        15.4620  -29.6001  -44.4921 H         1 UNK         0.0716 
     76 H76        16.4764  -28.3520  -41.0509 H         1 UNK         0.0695 
     77 H77        16.2378  -26.6276  -41.0832 H         1 UNK         0.0695 
     78 H78        18.6958  -27.9709  -42.3062 H         1 UNK         0.0983 
     79 H79        17.8741  -25.3579  -42.5483 H         1 UNK         0.3095 
     80 H80        19.1337  -23.7366  -43.3923 H         1 UNK         0.0454 
     81 H81        22.0816  -23.7587  -42.4957 H         1 UNK         0.0851 
     82 H82        20.7609  -22.9378  -41.6710 H         1 UNK         0.0851 
     83 H83        21.2545  -22.4134  -43.2720 H         1 UNK         0.0851 
     84 H84        21.4380  -25.3093  -44.4515 H         1 UNK         0.2976 
     85 H85        19.8087  -29.0953  -40.9562 H         1 UNK         0.3116 
     86 H86        20.8889  -29.9264  -39.2494 H         1 UNK         0.0646 
     87 H87        19.1552  -28.2885  -37.3332 H         1 UNK         0.0847 
     88 H88        20.1028  -29.7121  -36.9435 H         1 UNK         0.0847 
     89 H89        18.7084  -29.8595  -37.9975 H         1 UNK         0.0847 
     90 H90        21.3818  -26.9118  -40.2546 H         1 UNK         0.3040 
     91 H91        23.6401  -26.3757  -38.3481 H         1 UNK         0.1015 
     92 H92        22.0686  -24.4487  -40.1354 H         1 UNK         0.0786 
     93 H93        23.4687  -24.0217  -39.1603 H         1 UNK         0.0786 
     94 H94        21.9839  -24.5456  -38.3809 H         1 UNK         0.0786 
     95 H95        22.6491  -26.4444  -41.8033 H         1 UNK         0.3172 
     96 H96        25.3091  -26.0153  -42.8225 H         1 UNK         0.0595 
     97 H97        22.7596  -27.0623  -44.1629 H         1 UNK         0.0839 
     98 H98        24.2304  -26.6117  -45.0143 H         1 UNK         0.0839 
     99 H99        23.3380  -25.3870  -44.1337 H         1 UNK         0.0839 
    100 H100       23.4939  -28.9310  -41.9344 H         1 UNK         0.2998 
    101 H101       25.7932  -30.6208  -42.0584 H         1 UNK         0.0822 
    102 H102       25.2016  -30.6974  -44.5102 H         1 UNK         0.0787 
    103 H103       24.8262  -32.2341  -43.7564 H         1 UNK         0.0787 
    104 H104       23.5333  -31.0955  -44.1099 H         1 UNK         0.0787 
    105 H105       25.2209  -32.7570  -41.2035 H         1 UNK         0.3055 
    106 H106       23.0143  -32.7002  -39.2664 H         1 UNK         0.1106 
    107 H107       24.1233  -34.7220  -38.3730 H         1 UNK         0.0828 
    108 H108       25.2189  -34.7746  -39.7472 H         1 UNK         0.0828 
    109 H109       25.3034  -33.4439  -38.5920 H         1 UNK         0.0828 
    110 H110       22.1132  -32.6948  -41.8837 H         1 UNK         0.2931 
    111 H111       20.5646  -33.5079  -43.2353 H         1 UNK         0.0412 
    112 H112       23.1114  -36.1650  -44.3842 H         1 UNK         0.3472 
    113 H113       23.4033  -34.8523  -43.2706 H         1 UNK         0.3472 
    114 H114       18.9066  -35.1657  -42.5009 H         1 UNK         0.0970 
    115 H115       19.8998  -35.6327  -41.1638 H         1 UNK         0.0970 
    116 H116       18.9698  -31.3595  -40.0335 H         1 UNK         0.0612 
    117 H117       20.4476  -31.9114  -40.7159 H         1 UNK         0.0612 
@<TRIPOS>BOND
     1    1    2 1    
     2    1   62 1    
     3    1   63 1    
     4    1   64 1    
     5    2    3 2    
     6    2    4 am   BACKBONE|DICT|INTERRES
     7    4    5 1    
     8    4   65 1    
     9    5    6 1    
    10    5   25 1    
    11    5   66 1    
    12    6    7 1    
    13    6   67 1    
    14    6   68 1    
    15    7    8 1    
    16    8    9 1    
    17    8   69 1    
    18    8   70 1    
    19    9   10 ar   
    20    9   14 ar   
    21   10   11 ar   
    22   10   71 1    
    23   11   12 ar   
    24   11   61 1    
    25   12   13 ar   
    26   12   72 1    
    27   13   14 ar   
    28   13   15 1    
    29   14   73 1    
    30   15   16 1    
    31   15   74 1    
    32   15   75 1    
    33   16   17 1    
    34   17   18 1    
    35   17   76 1    
    36   17   77 1    
    37   18   19 1    
    38   18   27 1    
    39   18   78 1    
    40   19   20 am   BACKBONE|DICT|INTERRES
    41   19   79 1    
    42   20   21 2    
    43   20   22 1    
    44   22   23 1    
    45   22   24 1    
    46   22   80 1    
    47   23   81 1    
    48   23   82 1    
    49   23   83 1    
    50   24   25 am   BACKBONE|DICT|INTERRES
    51   24   84 1    
    52   25   26 2    
    53   27   28 2    
    54   27   29 am   BACKBONE|DICT|INTERRES
    55   29   30 1    
    56   29   85 1    
    57   30   31 1    
    58   30   32 1    
    59   30   86 1    
    60   31   87 1    
    61   31   88 1    
    62   31   89 1    
    63   32   33 2    
    64   32   34 am   BACKBONE|DICT|INTERRES
    65   34   35 1    
    66   34   90 1    
    67   35   36 1    
    68   35   37 1    
    69   35   91 1    
    70   36   92 1    
    71   36   93 1    
    72   36   94 1    
    73   37   38 2    
    74   37   39 am   BACKBONE|DICT|INTERRES
    75   39   40 1    
    76   39   95 1    
    77   40   41 1    
    78   40   42 1    
    79   40   96 1    
    80   41   97 1    
    81   41   98 1    
    82   41   99 1    
    83   42   43 2    
    84   42   44 am   BACKBONE|DICT|INTERRES
    85   44   45 1    
    86   44  100 1    
    87   45   46 1    
    88   45   47 1    
    89   45  101 1    
    90   46  102 1    
    91   46  103 1    
    92   46  104 1    
    93   47   48 2    
    94   47   49 am   BACKBONE|DICT|INTERRES
    95   49   50 1    
    96   49  105 1    
    97   50   51 1    
    98   50   52 1    
    99   50  106 1    
   100   51  107 1    
   101   51  108 1    
   102   51  109 1    
   103   52   53 2    
   104   52   54 am   BACKBONE|DICT|INTERRES
   105   54   55 1    
   106   54  110 1    
   107   55   56 1    
   108   55   59 1    
   109   55  111 1    
   110   56   57 am   BACKBONE|DICT|INTERRES
   111   56   58 2    
   112   57  112 1    
   113   57  113 1    
   114   59   60 1    
   115   59  114 1    
   116   59  115 1    
   117   60   61 1    
   118   61  116 1    
   119   61  117 1    
@<TRIPOS>SUBSTRUCTURE
     1 UNK         1 GROUP             0       ****    0 ROOT    
