@<TRIPOS>MOLECULE
3R8
117   119    1
SMALL
USER_CHARGES


@<TRIPOS>ATOM
      1 CA         15.9456  -22.2183  -42.7816 C.3       0 UNK        -0.2013 
      2 C          16.2468  -23.2640  -43.8446 C.2       0 UNK         0.4866 
      3 O          17.0379  -23.0045  -44.7513 O.2       0 UNK        -0.5176 
      4 N          15.6221  -24.4453  -43.7410 N.am      1 UNK        -0.4884 
      5 CA         15.8015  -25.5711  -44.6694 C.3       1 UNK         0.0853 
      6 C6         14.6777  -26.6266  -44.4878 C.3       10 UNK        -0.0849 
      7 S7         14.4109  -27.6525  -45.9750 S.3       10 UNK        -0.2776 
      8 C8         14.6386  -29.3490  -45.3383 C.3       10 UNK         0.0316 
      9 C9         16.0992  -29.7091  -45.0866 C.ar      10 UNK        -0.0863 
     10 C10        16.5409  -30.0235  -43.7964 C.ar      10 UNK        -0.1009 
     11 C11        17.8695  -30.4012  -43.5733 C.ar      10 UNK        -0.0712 
     12 C12        18.7623  -30.4470  -44.6468 C.ar      10 UNK        -0.0894 
     13 C13        18.3382  -30.1286  -45.9384 C.ar      10 UNK        -0.0745 
     14 C14        17.0026  -29.7727  -46.1537 C.ar      10 UNK        -0.0972 
     15 C15        19.3128  -30.1959  -47.1056 C.3       10 UNK         0.0209 
     16 S16        20.0185  -28.5668  -47.5145 S.3       10 UNK        -0.2568 
     17 C17        21.4018  -28.4105  -46.3335 C.3       10 UNK        -0.0983 
     18 CA         21.4347  -27.0065  -45.6612 C.3       3 UNK         0.0876 
     19 N          20.3104  -26.7794  -44.7461 N.am      3 UNK        -0.4424 
     20 C          20.1108  -27.3519  -43.5541 C.2       2 UNK         0.4918 
     21 O          20.8982  -28.1606  -43.0585 O.2       2 UNK        -0.4875 
     22 CA         18.8492  -26.9845  -42.7381 C.3       2 UNK         0.0481 
     23 CB         19.2622  -26.2932  -41.4274 C.3       2 UNK        -0.1831 
     24 N          17.7544  -26.1977  -43.3304 N.am      2 UNK        -0.4498 
     25 C          17.1950  -26.2244  -44.5509 C.2       1 UNK         0.5027 
     26 O          17.7048  -26.7125  -45.5542 O.2       1 UNK        -0.4969 
     27 C          22.7719  -26.6686  -44.9651 C.2       3 UNK         0.5005 
     28 O          23.0277  -25.4908  -44.7055 O.2       3 UNK        -0.5279 
     29 N          23.5896  -27.6878  -44.6615 N.am      4 UNK        -0.4463 
     30 CA         24.8556  -27.5510  -43.9363 C.3       4 UNK         0.0283 
     31 CB         25.6765  -28.8410  -44.0959 C.3       4 UNK        -0.1875 
     32 C          24.6774  -27.2185  -42.4440 C.2       4 UNK         0.4949 
     33 O          25.6003  -26.6612  -41.8497 O.2       4 UNK        -0.5039 
     34 N          23.5215  -27.5817  -41.8647 N.am      5 UNK        -0.4663 
     35 CA         23.0674  -27.3922  -40.4776 C.3       5 UNK         0.0242 
     36 CB         22.9004  -25.8961  -40.1506 C.3       5 UNK        -0.1982 
     37 C          23.9069  -28.1064  -39.4026 C.2       5 UNK         0.5017 
     38 O          23.3464  -28.8245  -38.5760 O.2       5 UNK        -0.5012 
     39 N          25.2281  -27.9073  -39.4313 N.am      6 UNK        -0.4439 
     40 CA         26.2029  -28.5434  -38.5434 C.3       6 UNK         0.0297 
     41 CB         27.4611  -27.6623  -38.4769 C.3       6 UNK        -0.2006 
     42 C          26.5730  -29.9710  -38.9846 C.2       6 UNK         0.4892 
     43 O          27.1272  -30.7191  -38.1784 O.2       6 UNK        -0.5089 
     44 N          26.2819  -30.3170  -40.2455 N.am      7 UNK        -0.4243 
     45 CA         26.6129  -31.5986  -40.8698 C.3       7 UNK         0.0196 
     46 CB         27.9156  -31.4486  -41.6800 C.3       7 UNK        -0.2007 
     47 C          25.4452  -32.1339  -41.7160 C.2       7 UNK         0.5020 
     48 O          25.6800  -32.8400  -42.6974 O.2       7 UNK        -0.5147 
     49 N          24.2066  -31.7997  -41.3347 N.am      8 UNK        -0.4734 
     50 CA         22.9819  -32.2945  -41.9603 C.3       8 UNK         0.0238 
     51 CB         22.5566  -31.3586  -43.1039 C.3       8 UNK        -0.1912 
     52 C          21.8892  -32.3938  -40.8915 C.2       8 UNK         0.5038 
     53 O          21.8496  -31.5498  -39.9941 O.2       8 UNK        -0.5046 
     54 N          21.0300  -33.4141  -41.0131 N.am      9 UNK        -0.4200 
     55 CA         19.9130  -33.7240  -40.0990 C.3       9 UNK         0.0839 
     56 C          20.3393  -34.0921  -38.6431 C.2       9 UNK         0.5513 
     57 N          21.5736  -34.5214  -38.4084 N.am      9 UNK        -0.7519 
     58 O          19.5359  -34.0232  -37.7161 O.2       9 UNK        -0.4960 
     59 C59        18.7730  -32.6655  -40.1490 C.3       10 UNK        -0.0876 
     60 S60        18.0470  -32.5116  -41.8165 S.3       10 UNK        -0.2414 
     61 C61        18.3476  -30.7569  -42.1741 C.3       10 UNK         0.0169 
     62 H62        15.5347  -21.3213  -43.2441 H         1 UNK         0.0903 
     63 H63        15.2277  -22.5785  -42.0449 H         1 UNK         0.0903 
     64 H64        16.8601  -21.9425  -42.2570 H         1 UNK         0.0903 
     65 H65        14.9690  -24.5942  -42.9839 H         1 UNK         0.3096 
     66 H66        15.7272  -25.1628  -45.6805 H         1 UNK         0.1121 
     67 H67        13.7280  -26.1259  -44.2922 H         1 UNK         0.0849 
     68 H68        14.8613  -27.2572  -43.6154 H         1 UNK         0.0849 
     69 H69        14.0401  -29.4792  -44.4353 H         1 UNK         0.0865 
     70 H70        14.2321  -30.0492  -46.0694 H         1 UNK         0.0865 
     71 H71        15.8498  -29.9910  -42.9652 H         1 UNK         0.1346 
     72 H72        19.7901  -30.7286  -44.4752 H         1 UNK         0.1412 
     73 H73        16.6677  -29.5293  -47.1528 H         1 UNK         0.1426 
     74 H74        20.1156  -30.9062  -46.9015 H         1 UNK         0.0716 
     75 H75        18.7925  -30.5772  -47.9855 H         1 UNK         0.0716 
     76 H76        22.3141  -28.5873  -46.9063 H         1 UNK         0.0695 
     77 H77        21.3454  -29.2028  -45.5861 H         1 UNK         0.0695 
     78 H78        21.3316  -26.2627  -46.4530 H         1 UNK         0.0983 
     79 H79        19.5390  -26.2410  -45.1232 H         1 UNK         0.3095 
     80 H80        18.3942  -27.9342  -42.4639 H         1 UNK         0.0454 
     81 H81        18.4112  -26.1523  -40.7611 H         1 UNK         0.0851 
     82 H82        19.9918  -26.8878  -40.8784 H         1 UNK         0.0851 
     83 H83        19.7093  -25.3162  -41.6145 H         1 UNK         0.0851 
     84 H84        17.2260  -25.6700  -42.6514 H         1 UNK         0.2976 
     85 H85        23.2960  -28.6247  -44.8958 H         1 UNK         0.3116 
     86 H86        25.4191  -26.7320  -44.3887 H         1 UNK         0.0646 
     87 H87        25.8685  -29.0638  -45.1456 H         1 UNK         0.0847 
     88 H88        26.6467  -28.7469  -43.6063 H         1 UNK         0.0847 
     89 H89        25.1725  -29.7017  -43.6561 H         1 UNK         0.0847 
     90 H90        22.8179  -28.0013  -42.4657 H         1 UNK         0.3040 
     91 H91        22.0785  -27.8514  -40.4362 H         1 UNK         0.1015 
     92 H92        23.8531  -25.3658  -40.1636 H         1 UNK         0.0786 
     93 H93        22.4658  -25.7598  -39.1595 H         1 UNK         0.0786 
     94 H94        22.2387  -25.4074  -40.8657 H         1 UNK         0.0786 
     95 H95        25.5861  -27.3133  -40.1791 H         1 UNK         0.3172 
     96 H96        25.7774  -28.6073  -37.5397 H         1 UNK         0.0595 
     97 H97        27.9316  -27.5554  -39.4554 H         1 UNK         0.0839 
     98 H98        28.2040  -28.0909  -37.8026 H         1 UNK         0.0839 
     99 H99        27.2273  -26.6641  -38.1062 H         1 UNK         0.0839 
    100 H100       25.8123  -29.6404  -40.8295 H         1 UNK         0.2998 
    101 H101       26.7812  -32.3508  -40.0962 H         1 UNK         0.0822 
    102 H102       28.2288  -32.4033  -42.1046 H         1 UNK         0.0787 
    103 H103       27.7970  -30.7460  -42.5053 H         1 UNK         0.0787 
    104 H104       28.7335  -31.0939  -41.0526 H         1 UNK         0.0787 
    105 H105       24.0625  -31.2702  -40.4828 H         1 UNK         0.3055 
    106 H106       23.1597  -33.2944  -42.3638 H         1 UNK         0.1106 
    107 H107       21.6407  -31.7169  -43.5727 H         1 UNK         0.0828 
    108 H108       22.3706  -30.3466  -42.7446 H         1 UNK         0.0828 
    109 H109       23.3177  -31.3094  -43.8821 H         1 UNK         0.0828 
    110 H110       21.1418  -34.0567  -41.7838 H         1 UNK         0.2931 
    111 H111       19.4900  -34.6529  -40.4836 H         1 UNK         0.0412 
    112 H112       21.8393  -34.7681  -37.4677 H         1 UNK         0.3472 
    113 H113       22.2411  -34.6002  -39.1585 H         1 UNK         0.3472 
    114 H114       17.9595  -32.9440  -39.4768 H         1 UNK         0.0970 
    115 H115       19.1325  -31.6972  -39.7971 H         1 UNK         0.0970 
    116 H116       17.8316  -30.1436  -41.4339 H         1 UNK         0.0612 
    117 H117       19.4127  -30.5405  -42.0715 H         1 UNK         0.0612 
@<TRIPOS>BOND
     1    1    2 1    
     2    1   62 1    
     3    1   63 1    
     4    1   64 1    
     5    2    3 2    
     6    2    4 am   BACKBONE|DICT|INTERRES
     7    4    5 1    
     8    4   65 1    
     9    5    6 1    
    10    5   25 1    
    11    5   66 1    
    12    6    7 1    
    13    6   67 1    
    14    6   68 1    
    15    7    8 1    
    16    8    9 1    
    17    8   69 1    
    18    8   70 1    
    19    9   10 ar   
    20    9   14 ar   
    21   10   11 ar   
    22   10   71 1    
    23   11   12 ar   
    24   11   61 1    
    25   12   13 ar   
    26   12   72 1    
    27   13   14 ar   
    28   13   15 1    
    29   14   73 1    
    30   15   16 1    
    31   15   74 1    
    32   15   75 1    
    33   16   17 1    
    34   17   18 1    
    35   17   76 1    
    36   17   77 1    
    37   18   19 1    
    38   18   27 1    
    39   18   78 1    
    40   19   20 am   BACKBONE|DICT|INTERRES
    41   19   79 1    
    42   20   21 2    
    43   20   22 1    
    44   22   23 1    
    45   22   24 1    
    46   22   80 1    
    47   23   81 1    
    48   23   82 1    
    49   23   83 1    
    50   24   25 am   BACKBONE|DICT|INTERRES
    51   24   84 1    
    52   25   26 2    
    53   27   28 2    
    54   27   29 am   BACKBONE|DICT|INTERRES
    55   29   30 1    
    56   29   85 1    
    57   30   31 1    
    58   30   32 1    
    59   30   86 1    
    60   31   87 1    
    61   31   88 1    
    62   31   89 1    
    63   32   33 2    
    64   32   34 am   BACKBONE|DICT|INTERRES
    65   34   35 1    
    66   34   90 1    
    67   35   36 1    
    68   35   37 1    
    69   35   91 1    
    70   36   92 1    
    71   36   93 1    
    72   36   94 1    
    73   37   38 2    
    74   37   39 am   BACKBONE|DICT|INTERRES
    75   39   40 1    
    76   39   95 1    
    77   40   41 1    
    78   40   42 1    
    79   40   96 1    
    80   41   97 1    
    81   41   98 1    
    82   41   99 1    
    83   42   43 2    
    84   42   44 am   BACKBONE|DICT|INTERRES
    85   44   45 1    
    86   44  100 1    
    87   45   46 1    
    88   45   47 1    
    89   45  101 1    
    90   46  102 1    
    91   46  103 1    
    92   46  104 1    
    93   47   48 2    
    94   47   49 am   BACKBONE|DICT|INTERRES
    95   49   50 1    
    96   49  105 1    
    97   50   51 1    
    98   50   52 1    
    99   50  106 1    
   100   51  107 1    
   101   51  108 1    
   102   51  109 1    
   103   52   53 2    
   104   52   54 am   BACKBONE|DICT|INTERRES
   105   54   55 1    
   106   54  110 1    
   107   55   56 1    
   108   55   59 1    
   109   55  111 1    
   110   56   57 am   BACKBONE|DICT|INTERRES
   111   56   58 2    
   112   57  112 1    
   113   57  113 1    
   114   59   60 1    
   115   59  114 1    
   116   59  115 1    
   117   60   61 1    
   118   61  116 1    
   119   61  117 1    
@<TRIPOS>SUBSTRUCTURE
     1 UNK         1 GROUP             0       ****    0 ROOT    
