@<TRIPOS>MOLECULE
3R8
117   119    1
SMALL
USER_CHARGES


@<TRIPOS>ATOM
      1 CA         18.4713  -25.6717  -38.6212 C.3       0 UNK        -0.2013 
      2 C          17.8398  -25.6068  -40.0041 C.2       0 UNK         0.4866 
      3 O          16.9984  -24.7422  -40.2500 O.2       0 UNK        -0.5176 
      4 N          18.2425  -26.5077  -40.9079 N.am      1 UNK        -0.4884 
      5 CA         17.7955  -26.5368  -42.3055 C.3       1 UNK         0.0853 
      6 C6         17.7548  -27.9668  -42.8930 C.3       10 UNK        -0.0849 
      7 S7         16.7717  -29.1718  -41.9318 S.3       10 UNK        -0.2776 
      8 C8         16.2585  -30.3998  -43.1885 C.3       10 UNK         0.0316 
      9 C9         17.3886  -30.7757  -44.1390 C.ar      10 UNK        -0.0863 
     10 C10        18.3136  -31.7711  -43.8099 C.ar      10 UNK        -0.1009 
     11 C11        19.3908  -32.0562  -44.6649 C.ar      10 UNK        -0.0712 
     12 C12        19.5403  -31.3023  -45.8375 C.ar      10 UNK        -0.0894 
     13 C13        18.6260  -30.2980  -46.1717 C.ar      10 UNK        -0.0745 
     14 C14        17.5239  -30.0857  -45.3434 C.ar      10 UNK        -0.0972 
     15 C15        18.8332  -29.4244  -47.4064 C.3       10 UNK         0.0209 
     16 S16        18.6118  -27.6461  -47.0252 S.3       10 UNK        -0.2568 
     17 C17        20.0975  -26.8682  -47.7453 C.3       10 UNK        -0.0983 
     18 CA         21.2452  -26.6228  -46.7317 C.3       3 UNK         0.0876 
     19 N          20.8148  -25.8434  -45.5553 N.am      3 UNK        -0.4424 
     20 C          21.6378  -25.3215  -44.6328 C.2       2 UNK         0.4918 
     21 O          22.8637  -25.4207  -44.6903 O.2       2 UNK        -0.4875 
     22 CA         21.0110  -24.6348  -43.4063 C.3       2 UNK         0.0481 
     23 CB         20.5784  -23.1908  -43.7254 C.3       2 UNK        -0.1831 
     24 N          19.9423  -25.4119  -42.7616 N.am      2 UNK        -0.4498 
     25 C          18.6942  -25.6523  -43.1963 C.2       1 UNK         0.5027 
     26 O          18.2559  -25.2377  -44.2695 O.2       1 UNK        -0.4969 
     27 C          21.9617  -27.9417  -46.3642 C.2       3 UNK         0.5005 
     28 O          22.7256  -28.4693  -47.1737 O.2       3 UNK        -0.5279 
     29 N          21.7212  -28.4266  -45.1395 N.am      4 UNK        -0.4463 
     30 CA         22.3899  -29.5621  -44.5116 C.3       4 UNK         0.0283 
     31 CB         21.6832  -29.8450  -43.1788 C.3       4 UNK        -0.1875 
     32 C          23.8844  -29.3334  -44.2321 C.2       4 UNK         0.4949 
     33 O          24.6054  -30.3136  -44.0436 O.2       4 UNK        -0.5039 
     34 N          24.3056  -28.0616  -44.1272 N.am      5 UNK        -0.4663 
     35 CA         25.6026  -27.5583  -43.6503 C.3       5 UNK         0.0242 
     36 CB         26.7767  -28.0573  -44.5156 C.3       5 UNK        -0.1982 
     37 C          25.8301  -27.8387  -42.1544 C.2       5 UNK         0.5017 
     38 O          26.0395  -26.9020  -41.3829 O.2       5 UNK        -0.5012 
     39 N          25.7184  -29.1113  -41.7574 N.am      6 UNK        -0.4439 
     40 CA         25.7116  -29.5933  -40.3777 C.3       6 UNK         0.0297 
     41 CB         26.1440  -31.0715  -40.3692 C.3       6 UNK        -0.2006 
     42 C          24.3281  -29.3807  -39.7334 C.2       6 UNK         0.4892 
     43 O          23.6544  -30.3541  -39.3898 O.2       6 UNK        -0.5089 
     44 N          23.9287  -28.1067  -39.6065 N.am      7 UNK        -0.4243 
     45 CA         22.6785  -27.5952  -39.0326 C.3       7 UNK         0.0196 
     46 CB         22.6384  -27.8221  -37.5058 C.3       7 UNK        -0.2007 
     47 C          21.4222  -28.1258  -39.7447 C.2       7 UNK         0.5020 
     48 O          20.8997  -27.4509  -40.6331 O.2       7 UNK        -0.5147 
     49 N          20.9518  -29.3069  -39.3322 N.am      8 UNK        -0.4734 
     50 CA         19.7669  -29.9903  -39.8536 C.3       8 UNK         0.0238 
     51 CB         18.6075  -29.8024  -38.8557 C.3       8 UNK        -0.1912 
     52 C          20.0316  -31.4785  -40.1548 C.2       8 UNK         0.5038 
     53 O          19.0674  -32.2325  -40.2867 O.2       8 UNK        -0.5046 
     54 N          21.3134  -31.8708  -40.2424 N.am      9 UNK        -0.4200 
     55 CA         21.8225  -33.2383  -40.4472 C.3       9 UNK         0.0839 
     56 C          21.2742  -34.2929  -39.4356 C.2       9 UNK         0.5513 
     57 N          21.1550  -35.5589  -39.8145 N.am      9 UNK        -0.7519 
     58 O          21.0232  -33.9821  -38.2726 O.2       9 UNK        -0.4960 
     59 C59        21.8838  -33.6765  -41.9458 C.3       10 UNK        -0.0876 
     60 S60        20.2779  -34.0026  -42.7630 S.3       10 UNK        -0.2414 
     61 C61        20.4324  -33.1426  -44.3725 C.3       10 UNK         0.0169 
     62 H62        19.2446  -26.4355  -38.5576 H         1 UNK         0.0903 
     63 H63        18.9246  -24.7129  -38.3709 H         1 UNK         0.0903 
     64 H64        17.7116  -25.8954  -37.8728 H         1 UNK         0.0903 
     65 H65        18.9958  -27.1477  -40.6739 H         1 UNK         0.3096 
     66 H66        16.7843  -26.1273  -42.3650 H         1 UNK         0.1121 
     67 H67        17.3292  -27.9027  -43.8939 H         1 UNK         0.0849 
     68 H68        18.7617  -28.3728  -43.0074 H         1 UNK         0.0849 
     69 H69        15.8889  -31.2923  -42.6814 H         1 UNK         0.0865 
     70 H70        15.4123  -29.9996  -43.7493 H         1 UNK         0.0865 
     71 H71        18.1900  -32.3037  -42.8780 H         1 UNK         0.1346 
     72 H72        20.3850  -31.4895  -46.4865 H         1 UNK         0.1412 
     73 H73        16.8011  -29.3256  -45.6063 H         1 UNK         0.1426 
     74 H74        19.8253  -29.5950  -47.8265 H         1 UNK         0.0716 
     75 H75        18.1162  -29.7153  -48.1750 H         1 UNK         0.0716 
     76 H76        20.4442  -27.4495  -48.6019 H         1 UNK         0.0695 
     77 H77        19.7846  -25.9090  -48.1605 H         1 UNK         0.0695 
     78 H78        21.9968  -26.0167  -47.2426 H         1 UNK         0.0983 
     79 H79        19.8140  -25.7245  -45.4273 H         1 UNK         0.3095 
     80 H80        21.7992  -24.5698  -42.6544 H         1 UNK         0.0454 
     81 H81        19.8179  -23.1488  -44.5053 H         1 UNK         0.0851 
     82 H82        20.1806  -22.6920  -42.8418 H         1 UNK         0.0851 
     83 H83        21.4274  -22.6018  -44.0747 H         1 UNK         0.0851 
     84 H84        20.2133  -25.8643  -41.8944 H         1 UNK         0.2976 
     85 H85        21.0509  -27.9297  -44.5729 H         1 UNK         0.3116 
     86 H86        22.2941  -30.4289  -45.1672 H         1 UNK         0.0646 
     87 H87        22.1112  -30.7161  -42.6878 H         1 UNK         0.0847 
     88 H88        20.6186  -30.0301  -43.3086 H         1 UNK         0.0847 
     89 H89        21.7927  -29.0077  -42.4924 H         1 UNK         0.0847 
     90 H90        23.6249  -27.3317  -44.3093 H         1 UNK         0.3040 
     91 H91        25.5551  -26.4732  -43.7613 H         1 UNK         0.1015 
     92 H92        26.6223  -27.8143  -45.5669 H         1 UNK         0.0786 
     93 H93        26.9212  -29.1352  -44.4398 H         1 UNK         0.0786 
     94 H94        27.7108  -27.5856  -44.2077 H         1 UNK         0.0786 
     95 H95        25.4719  -29.7857  -42.4792 H         1 UNK         0.3172 
     96 H96        26.4401  -29.0254  -39.7953 H         1 UNK         0.0595 
     97 H97        26.1654  -31.4664  -39.3525 H         1 UNK         0.0839 
     98 H98        27.1443  -31.1946  -40.7846 H         1 UNK         0.0839 
     99 H99        25.4617  -31.6961  -40.9477 H         1 UNK         0.0839 
    100 H100       24.5547  -27.4021  -39.9827 H         1 UNK         0.2998 
    101 H101       22.6873  -26.5167  -39.1988 H         1 UNK         0.0822 
    102 H102       23.4457  -27.2820  -37.0111 H         1 UNK         0.0787 
    103 H103       21.7018  -27.4591  -37.0800 H         1 UNK         0.0787 
    104 H104       22.7360  -28.8739  -37.2355 H         1 UNK         0.0787 
    105 H105       21.4855  -29.8038  -38.6302 H         1 UNK         0.3055 
    106 H106       19.4785  -29.5495  -40.8091 H         1 UNK         0.1106 
    107 H107       17.6933  -30.2759  -39.2159 H         1 UNK         0.0828 
    108 H108       18.8399  -30.2396  -37.8843 H         1 UNK         0.0828 
    109 H109       18.3784  -28.7486  -38.7042 H         1 UNK         0.0828 
    110 H110       22.0370  -31.1831  -40.0561 H         1 UNK         0.2931 
    111 H111       22.8665  -33.1474  -40.1442 H         1 UNK         0.0412 
    112 H112       20.8263  -36.2421  -39.1501 H         1 UNK         0.3472 
    113 H113       21.3345  -35.8302  -40.7684 H         1 UNK         0.3472 
    114 H114       22.4897  -34.5789  -42.0406 H         1 UNK         0.0970 
    115 H115       22.4376  -32.9259  -42.5068 H         1 UNK         0.0970 
    116 H116       20.3586  -33.8993  -45.1545 H         1 UNK         0.0612 
    117 H117       21.4278  -32.7099  -44.4707 H         1 UNK         0.0612 
@<TRIPOS>BOND
     1    1    2 1    
     2    1   62 1    
     3    1   63 1    
     4    1   64 1    
     5    2    3 2    
     6    2    4 am   BACKBONE|DICT|INTERRES
     7    4    5 1    
     8    4   65 1    
     9    5    6 1    
    10    5   25 1    
    11    5   66 1    
    12    6    7 1    
    13    6   67 1    
    14    6   68 1    
    15    7    8 1    
    16    8    9 1    
    17    8   69 1    
    18    8   70 1    
    19    9   10 ar   
    20    9   14 ar   
    21   10   11 ar   
    22   10   71 1    
    23   11   12 ar   
    24   11   61 1    
    25   12   13 ar   
    26   12   72 1    
    27   13   14 ar   
    28   13   15 1    
    29   14   73 1    
    30   15   16 1    
    31   15   74 1    
    32   15   75 1    
    33   16   17 1    
    34   17   18 1    
    35   17   76 1    
    36   17   77 1    
    37   18   19 1    
    38   18   27 1    
    39   18   78 1    
    40   19   20 am   BACKBONE|DICT|INTERRES
    41   19   79 1    
    42   20   21 2    
    43   20   22 1    
    44   22   23 1    
    45   22   24 1    
    46   22   80 1    
    47   23   81 1    
    48   23   82 1    
    49   23   83 1    
    50   24   25 am   BACKBONE|DICT|INTERRES
    51   24   84 1    
    52   25   26 2    
    53   27   28 2    
    54   27   29 am   BACKBONE|DICT|INTERRES
    55   29   30 1    
    56   29   85 1    
    57   30   31 1    
    58   30   32 1    
    59   30   86 1    
    60   31   87 1    
    61   31   88 1    
    62   31   89 1    
    63   32   33 2    
    64   32   34 am   BACKBONE|DICT|INTERRES
    65   34   35 1    
    66   34   90 1    
    67   35   36 1    
    68   35   37 1    
    69   35   91 1    
    70   36   92 1    
    71   36   93 1    
    72   36   94 1    
    73   37   38 2    
    74   37   39 am   BACKBONE|DICT|INTERRES
    75   39   40 1    
    76   39   95 1    
    77   40   41 1    
    78   40   42 1    
    79   40   96 1    
    80   41   97 1    
    81   41   98 1    
    82   41   99 1    
    83   42   43 2    
    84   42   44 am   BACKBONE|DICT|INTERRES
    85   44   45 1    
    86   44  100 1    
    87   45   46 1    
    88   45   47 1    
    89   45  101 1    
    90   46  102 1    
    91   46  103 1    
    92   46  104 1    
    93   47   48 2    
    94   47   49 am   BACKBONE|DICT|INTERRES
    95   49   50 1    
    96   49  105 1    
    97   50   51 1    
    98   50   52 1    
    99   50  106 1    
   100   51  107 1    
   101   51  108 1    
   102   51  109 1    
   103   52   53 2    
   104   52   54 am   BACKBONE|DICT|INTERRES
   105   54   55 1    
   106   54  110 1    
   107   55   56 1    
   108   55   59 1    
   109   55  111 1    
   110   56   57 am   BACKBONE|DICT|INTERRES
   111   56   58 2    
   112   57  112 1    
   113   57  113 1    
   114   59   60 1    
   115   59  114 1    
   116   59  115 1    
   117   60   61 1    
   118   61  116 1    
   119   61  117 1    
@<TRIPOS>SUBSTRUCTURE
     1 UNK         1 GROUP             0       ****    0 ROOT    
