@<TRIPOS>MOLECULE
3R8
117   119    1
SMALL
USER_CHARGES


@<TRIPOS>ATOM
      1 CA         16.3650  -30.1366  -40.5809 C.3       0 UNK        -0.2013 
      2 C          16.8005  -28.7001  -40.8170 C.2       0 UNK         0.4866 
      3 O          16.4555  -27.8259  -40.0214 O.2       0 UNK        -0.5176 
      4 N          17.5357  -28.4495  -41.9075 N.am      1 UNK        -0.4884 
      5 CA         17.9235  -27.1113  -42.3675 C.3       1 UNK         0.0853 
      6 C6         17.0851  -26.6151  -43.5856 C.3       10 UNK        -0.0849 
      7 S7         15.2735  -26.8235  -43.3738 S.3       10 UNK        -0.2776 
      8 C8         14.7191  -27.8159  -44.8101 C.3       10 UNK         0.0316 
      9 C9         15.7356  -28.8505  -45.2741 C.ar      10 UNK        -0.0863 
     10 C10        16.0387  -29.9632  -44.4835 C.ar      10 UNK        -0.1009 
     11 C11        17.0408  -30.8566  -44.8764 C.ar      10 UNK        -0.0712 
     12 C12        17.7105  -30.6533  -46.0867 C.ar      10 UNK        -0.0894 
     13 C13        17.4181  -29.5408  -46.8799 C.ar      10 UNK        -0.0745 
     14 C14        16.4179  -28.6541  -46.4779 C.ar      10 UNK        -0.0972 
     15 C15        18.2143  -29.2559  -48.1429 C.3       10 UNK         0.0209 
     16 S16        19.5117  -28.0140  -47.8316 S.3       10 UNK        -0.2568 
     17 C17        20.7503  -29.0236  -46.9575 C.3       10 UNK        -0.0983 
     18 CA         21.8590  -28.1760  -46.2906 C.3       3 UNK         0.0876 
     19 N          21.3253  -27.2959  -45.2356 N.am      3 UNK        -0.4424 
     20 C          22.0405  -26.4247  -44.5071 C.2       2 UNK         0.4918 
     21 O          23.2497  -26.2559  -44.6606 O.2       2 UNK        -0.4875 
     22 CA         21.3306  -25.6190  -43.4007 C.3       2 UNK         0.0481 
     23 CB         21.4632  -24.1099  -43.6645 C.3       2 UNK        -0.1831 
     24 N          19.9175  -25.9380  -43.1716 N.am      2 UNK        -0.4498 
     25 C          19.4404  -27.0779  -42.6515 C.2       1 UNK         0.5027 
     26 O          20.1508  -28.0564  -42.4000 O.2       1 UNK        -0.4969 
     27 C          22.9933  -29.1072  -45.8046 C.2       3 UNK         0.5005 
     28 O          23.8565  -29.4767  -46.6019 O.2       3 UNK        -0.5279 
     29 N          22.9879  -29.4474  -44.5077 N.am      4 UNK        -0.4463 
     30 CA         24.0374  -30.2141  -43.8306 C.3       4 UNK         0.0283 
     31 CB         23.4766  -30.7143  -42.4918 C.3       4 UNK        -0.1875 
     32 C          25.3486  -29.4332  -43.6038 C.2       4 UNK         0.4949 
     33 O          26.3415  -30.0483  -43.2167 O.2       4 UNK        -0.5039 
     34 N          25.3205  -28.1085  -43.8144 N.am      5 UNK        -0.4663 
     35 CA         26.3793  -27.1216  -43.5757 C.3       5 UNK         0.0242 
     36 CB         27.4723  -27.2580  -44.6568 C.3       5 UNK        -0.1982 
     37 C          26.9487  -27.1623  -42.1383 C.2       5 UNK         0.5017 
     38 O          28.1383  -27.4304  -41.9711 O.2       5 UNK        -0.5012 
     39 N          26.1500  -26.9196  -41.0884 N.am      6 UNK        -0.4439 
     40 CA         24.7254  -26.5688  -41.0542 C.3       6 UNK         0.0297 
     41 CB         24.5663  -25.0365  -41.0220 C.3       6 UNK        -0.2006 
     42 C          24.0557  -27.2736  -39.8622 C.2       6 UNK         0.4892 
     43 O          23.2092  -26.6850  -39.1903 O.2       6 UNK        -0.5089 
     44 N          24.4563  -28.5293  -39.6133 N.am      7 UNK        -0.4243 
     45 CA         24.0983  -29.3560  -38.4521 C.3       7 UNK         0.0196 
     46 CB         25.1483  -30.4768  -38.3184 C.3       7 UNK        -0.2007 
     47 C          22.6556  -29.9128  -38.4467 C.2       7 UNK         0.5020 
     48 O          22.4325  -31.0025  -37.9154 O.2       7 UNK        -0.5147 
     49 N          21.7039  -29.1732  -39.0348 N.am      8 UNK        -0.4734 
     50 CA         20.2525  -29.4207  -39.0622 C.3       8 UNK         0.0238 
     51 CB         19.6356  -29.0509  -37.6977 C.3       8 UNK        -0.1912 
     52 C          19.8449  -30.8359  -39.5241 C.2       8 UNK         0.5038 
     53 O          18.8683  -31.3894  -39.0170 O.2       8 UNK        -0.5046 
     54 N          20.6138  -31.3980  -40.4648 N.am      9 UNK        -0.4200 
     55 CA         20.4471  -32.7492  -41.0306 C.3       9 UNK         0.0839 
     56 C          20.6445  -33.9098  -40.0078 C.2       9 UNK         0.5513 
     57 N          21.2880  -33.6837  -38.8674 N.am      9 UNK        -0.7519 
     58 O          20.2408  -35.0414  -40.2638 O.2       9 UNK        -0.4960 
     59 C59        19.1543  -32.8934  -41.8862 C.3       10 UNK        -0.0876 
     60 S60        19.0366  -31.5924  -43.1606 S.3       10 UNK        -0.2414 
     61 C61        17.4581  -31.9990  -43.9651 C.3       10 UNK         0.0169 
     62 H62        16.9868  -30.8406  -41.1284 H         1 UNK         0.0903 
     63 H63        16.4298  -30.3831  -39.5216 H         1 UNK         0.0903 
     64 H64        15.3314  -30.2713  -40.8974 H         1 UNK         0.0903 
     65 H65        17.8634  -29.2100  -42.4893 H         1 UNK         0.3096 
     66 H66        17.7721  -26.3981  -41.5544 H         1 UNK         0.1121 
     67 H67        17.2539  -25.5493  -43.7461 H         1 UNK         0.0849 
     68 H68        17.4266  -27.0958  -44.5005 H         1 UNK         0.0849 
     69 H69        14.4727  -27.1332  -45.6249 H         1 UNK         0.0865 
     70 H70        13.7869  -28.3196  -44.5509 H         1 UNK         0.0865 
     71 H71        15.5268  -30.1022  -43.5415 H         1 UNK         0.1346 
     72 H72        18.4969  -31.3345  -46.3820 H         1 UNK         0.1412 
     73 H73        16.2063  -27.7831  -47.0833 H         1 UNK         0.1426 
     74 H74        17.5454  -28.8826  -48.9199 H         1 UNK         0.0716 
     75 H75        18.6621  -30.1695  -48.5370 H         1 UNK         0.0716 
     76 H76        21.1753  -29.7145  -47.6888 H         1 UNK         0.0695 
     77 H77        20.2550  -29.6381  -46.2051 H         1 UNK         0.0695 
     78 H78        22.2989  -27.5280  -47.0517 H         1 UNK         0.0983 
     79 H79        20.3356  -27.3723  -45.0563 H         1 UNK         0.3095 
     80 H80        21.8617  -25.8413  -42.4735 H         1 UNK         0.0454 
     81 H81        21.0572  -23.5240  -42.8400 H         1 UNK         0.0851 
     82 H82        22.5091  -23.8191  -43.7754 H         1 UNK         0.0851 
     83 H83        20.9453  -23.8129  -44.5772 H         1 UNK         0.0851 
     84 H84        19.2663  -25.1898  -43.3632 H         1 UNK         0.2976 
     85 H85        22.2240  -29.1131  -43.9353 H         1 UNK         0.3116 
     86 H86        24.2800  -31.0819  -44.4471 H         1 UNK         0.0646 
     87 H87        23.1795  -29.8895  -41.8441 H         1 UNK         0.0847 
     88 H88        24.2109  -31.3133  -41.9512 H         1 UNK         0.0847 
     89 H89        22.6059  -31.3437  -42.6620 H         1 UNK         0.0847 
     90 H90        24.4517  -27.7024  -44.1485 H         1 UNK         0.3040 
     91 H91        25.9236  -26.1379  -43.6980 H         1 UNK         0.1015 
     92 H92        28.2347  -26.4862  -44.5430 H         1 UNK         0.0786 
     93 H93        27.0524  -27.1527  -45.6573 H         1 UNK         0.0786 
     94 H94        27.9751  -28.2243  -44.6058 H         1 UNK         0.0786 
     95 H95        26.5783  -26.9775  -40.1743 H         1 UNK         0.3172 
     96 H96        24.1975  -26.9343  -41.9311 H         1 UNK         0.0595 
     97 H97        25.0484  -24.6018  -40.1455 H         1 UNK         0.0839 
     98 H98        23.5152  -24.7477  -40.9915 H         1 UNK         0.0839 
     99 H99        24.9993  -24.5715  -41.9075 H         1 UNK         0.0839 
    100 H100       25.1379  -28.9316  -40.2411 H         1 UNK         0.2998 
    101 H101       24.1774  -28.7246  -37.5640 H         1 UNK         0.0822 
    102 H102       26.1594  -30.0722  -38.2654 H         1 UNK         0.0787 
    103 H103       24.9936  -31.0591  -37.4086 H         1 UNK         0.0787 
    104 H104       25.1057  -31.1692  -39.1608 H         1 UNK         0.0787 
    105 H105       22.0012  -28.2717  -39.3946 H         1 UNK         0.3055 
    106 H106       19.8384  -28.7375  -39.8048 H         1 UNK         0.1106 
    107 H107       19.8989  -28.0344  -37.4055 H         1 UNK         0.0828 
    108 H108       18.5463  -29.1027  -37.7309 H         1 UNK         0.0828 
    109 H109       19.9721  -29.7255  -36.9099 H         1 UNK         0.0828 
    110 H110       21.4017  -30.8692  -40.8034 H         1 UNK         0.2931 
    111 H111       21.2827  -32.8770  -41.7168 H         1 UNK         0.0412 
    112 H112       21.6222  -32.7552  -38.6322 H         1 UNK         0.3472 
    113 H113       21.4204  -34.4427  -38.2184 H         1 UNK         0.3472 
    114 H114       18.2687  -32.8615  -41.2504 H         1 UNK         0.0970 
    115 H115       19.1354  -33.8616  -42.3896 H         1 UNK         0.0970 
    116 H116       17.5669  -32.9187  -44.5414 H         1 UNK         0.0612 
    117 H117       16.6945  -32.1878  -43.2094 H         1 UNK         0.0612 
@<TRIPOS>BOND
     1    1    2 1    
     2    1   62 1    
     3    1   63 1    
     4    1   64 1    
     5    2    3 2    
     6    2    4 am   BACKBONE|DICT|INTERRES
     7    4    5 1    
     8    4   65 1    
     9    5    6 1    
    10    5   25 1    
    11    5   66 1    
    12    6    7 1    
    13    6   67 1    
    14    6   68 1    
    15    7    8 1    
    16    8    9 1    
    17    8   69 1    
    18    8   70 1    
    19    9   10 ar   
    20    9   14 ar   
    21   10   11 ar   
    22   10   71 1    
    23   11   12 ar   
    24   11   61 1    
    25   12   13 ar   
    26   12   72 1    
    27   13   14 ar   
    28   13   15 1    
    29   14   73 1    
    30   15   16 1    
    31   15   74 1    
    32   15   75 1    
    33   16   17 1    
    34   17   18 1    
    35   17   76 1    
    36   17   77 1    
    37   18   19 1    
    38   18   27 1    
    39   18   78 1    
    40   19   20 am   BACKBONE|DICT|INTERRES
    41   19   79 1    
    42   20   21 2    
    43   20   22 1    
    44   22   23 1    
    45   22   24 1    
    46   22   80 1    
    47   23   81 1    
    48   23   82 1    
    49   23   83 1    
    50   24   25 am   BACKBONE|DICT|INTERRES
    51   24   84 1    
    52   25   26 2    
    53   27   28 2    
    54   27   29 am   BACKBONE|DICT|INTERRES
    55   29   30 1    
    56   29   85 1    
    57   30   31 1    
    58   30   32 1    
    59   30   86 1    
    60   31   87 1    
    61   31   88 1    
    62   31   89 1    
    63   32   33 2    
    64   32   34 am   BACKBONE|DICT|INTERRES
    65   34   35 1    
    66   34   90 1    
    67   35   36 1    
    68   35   37 1    
    69   35   91 1    
    70   36   92 1    
    71   36   93 1    
    72   36   94 1    
    73   37   38 2    
    74   37   39 am   BACKBONE|DICT|INTERRES
    75   39   40 1    
    76   39   95 1    
    77   40   41 1    
    78   40   42 1    
    79   40   96 1    
    80   41   97 1    
    81   41   98 1    
    82   41   99 1    
    83   42   43 2    
    84   42   44 am   BACKBONE|DICT|INTERRES
    85   44   45 1    
    86   44  100 1    
    87   45   46 1    
    88   45   47 1    
    89   45  101 1    
    90   46  102 1    
    91   46  103 1    
    92   46  104 1    
    93   47   48 2    
    94   47   49 am   BACKBONE|DICT|INTERRES
    95   49   50 1    
    96   49  105 1    
    97   50   51 1    
    98   50   52 1    
    99   50  106 1    
   100   51  107 1    
   101   51  108 1    
   102   51  109 1    
   103   52   53 2    
   104   52   54 am   BACKBONE|DICT|INTERRES
   105   54   55 1    
   106   54  110 1    
   107   55   56 1    
   108   55   59 1    
   109   55  111 1    
   110   56   57 am   BACKBONE|DICT|INTERRES
   111   56   58 2    
   112   57  112 1    
   113   57  113 1    
   114   59   60 1    
   115   59  114 1    
   116   59  115 1    
   117   60   61 1    
   118   61  116 1    
   119   61  117 1    
@<TRIPOS>SUBSTRUCTURE
     1 UNK         1 GROUP             0       ****    0 ROOT    
