@<TRIPOS>MOLECULE
3R8
117   119    1
SMALL
USER_CHARGES


@<TRIPOS>ATOM
      1 CA         16.5607  -23.5682  -40.4733 C.3       0 UNK        -0.2013 
      2 C          16.6810  -23.7995  -41.9723 C.2       0 UNK         0.4866 
      3 O          16.6336  -22.8421  -42.7458 O.2       0 UNK        -0.5176 
      4 N          16.8260  -25.0634  -42.3881 N.am      1 UNK        -0.4884 
      5 CA         17.0098  -25.4731  -43.7850 C.3       1 UNK         0.0853 
      6 C6         16.8411  -27.0028  -43.9619 C.3       10 UNK        -0.0849 
      7 S7         15.2353  -27.6339  -43.3597 S.3       10 UNK        -0.2776 
      8 C8         14.7632  -28.8215  -44.6642 C.3       10 UNK         0.0316 
      9 C9         15.8741  -29.8177  -44.9757 C.ar      10 UNK        -0.0863 
     10 C10        16.3404  -30.6930  -43.9889 C.ar      10 UNK        -0.1009 
     11 C11        17.4001  -31.5652  -44.2564 C.ar      10 UNK        -0.0712 
     12 C12        17.9751  -31.5784  -45.5299 C.ar      10 UNK        -0.0894 
     13 C13        17.5252  -30.6990  -46.5210 C.ar      10 UNK        -0.0745 
     14 C14        16.4641  -29.8335  -46.2435 C.ar      10 UNK        -0.0972 
     15 C15        18.2427  -30.6256  -47.8629 C.3       10 UNK         0.0209 
     16 S16        19.2954  -29.1363  -47.9951 S.3       10 UNK        -0.2568 
     17 C17        20.3087  -29.2792  -46.4822 C.3       10 UNK        -0.0983 
     18 CA         21.1422  -28.0257  -46.1149 C.3       3 UNK         0.0876 
     19 N          20.3365  -26.8046  -46.1787 N.am      3 UNK        -0.4424 
     20 C          20.8145  -25.5569  -46.2544 C.2       2 UNK         0.4918 
     21 O          22.0138  -25.2821  -46.2855 O.2       2 UNK        -0.4875 
     22 CA         19.7710  -24.4212  -46.2779 C.3       2 UNK         0.0481 
     23 CB         19.4791  -23.9961  -47.7256 C.3       2 UNK        -0.1831 
     24 N          18.5076  -24.7593  -45.6052 N.am      2 UNK        -0.4498 
     25 C          18.4010  -25.0508  -44.3004 C.2       1 UNK         0.5027 
     26 O          19.3661  -25.0690  -43.5330 O.2       1 UNK        -0.4969 
     27 C          21.7669  -28.2714  -44.7223 C.2       3 UNK         0.5005 
     28 O          22.6166  -29.1571  -44.6192 O.2       3 UNK        -0.5279 
     29 N          21.2849  -27.5695  -43.6782 N.am      4 UNK        -0.4463 
     30 CA         21.4994  -27.9005  -42.2628 C.3       4 UNK         0.0283 
     31 CB         20.7623  -26.9009  -41.3586 C.3       4 UNK        -0.1875 
     32 C          22.9687  -28.0284  -41.8407 C.2       4 UNK         0.4949 
     33 O          23.2841  -28.9700  -41.1178 O.2       4 UNK        -0.5039 
     34 N          23.8184  -27.1018  -42.3126 N.am      5 UNK        -0.4663 
     35 CA         25.2909  -27.1203  -42.2772 C.3       5 UNK         0.0242 
     36 CB         25.8099  -27.9317  -43.4818 C.3       5 UNK        -0.1982 
     37 C          25.9176  -27.5749  -40.9398 C.2       5 UNK         0.5017 
     38 O          26.7973  -28.4379  -40.9347 O.2       5 UNK        -0.5012 
     39 N          25.4359  -26.9852  -39.8348 N.am      6 UNK        -0.4439 
     40 CA         25.8093  -27.2753  -38.4433 C.3       6 UNK         0.0297 
     41 CB         27.2805  -26.8924  -38.1698 C.3       6 UNK        -0.2006 
     42 C          25.4688  -28.7213  -38.0236 C.2       6 UNK         0.4892 
     43 O          26.3362  -29.4453  -37.5311 O.2       6 UNK        -0.5089 
     44 N          24.1940  -29.0907  -38.2169 N.am      7 UNK        -0.4243 
     45 CA         23.5699  -30.3791  -37.8885 C.3       7 UNK         0.0196 
     46 CB         23.6027  -30.6480  -36.3679 C.3       7 UNK        -0.2007 
     47 C          24.1201  -31.5484  -38.7276 C.2       7 UNK         0.5020 
     48 O          24.4375  -32.6091  -38.1871 O.2       7 UNK        -0.5147 
     49 N          24.2001  -31.3382  -40.0470 N.am      8 UNK        -0.4734 
     50 CA         24.5645  -32.3550  -41.0368 C.3       8 UNK         0.0238 
     51 CB         25.0349  -31.6586  -42.3232 C.3       8 UNK        -0.1912 
     52 C          23.4159  -33.3341  -41.3432 C.2       8 UNK         0.5038 
     53 O          23.6895  -34.4470  -41.7951 O.2       8 UNK        -0.5046 
     54 N          22.1656  -32.9132  -41.0999 N.am      9 UNK        -0.4200 
     55 CA         20.9545  -33.7431  -41.1994 C.3       9 UNK         0.0839 
     56 C          20.9812  -34.9390  -40.2077 C.2       9 UNK         0.5513 
     57 N          20.5675  -36.1200  -40.6459 N.am      9 UNK        -0.7519 
     58 O          21.3237  -34.7908  -39.0366 O.2       9 UNK        -0.4960 
     59 C59        19.6679  -32.9038  -40.9830 C.3       10 UNK        -0.0876 
     60 S60        19.3670  -31.6957  -42.3177 S.3       10 UNK        -0.2414 
     61 C61        17.9471  -32.4676  -43.1613 C.3       10 UNK         0.0169 
     62 H62        16.6042  -24.5013  -39.9118 H         1 UNK         0.0903 
     63 H63        17.3704  -22.9264  -40.1272 H         1 UNK         0.0903 
     64 H64        15.6148  -23.0783  -40.2437 H         1 UNK         0.0903 
     65 H65        16.8555  -25.8118  -41.7108 H         1 UNK         0.3096 
     66 H66        16.2509  -24.9650  -44.3846 H         1 UNK         0.1121 
     67 H67        16.9476  -27.2620  -45.0165 H         1 UNK         0.0849 
     68 H68        17.6293  -27.5468  -43.4363 H         1 UNK         0.0849 
     69 H69        13.8733  -29.3655  -44.3449 H         1 UNK         0.0865 
     70 H70        14.4767  -28.2658  -45.5585 H         1 UNK         0.0865 
     71 H71        15.8997  -30.6687  -43.0015 H         1 UNK         0.1346 
     72 H72        18.8096  -32.2362  -45.7311 H         1 UNK         0.1412 
     73 H73        16.1292  -29.1433  -47.0061 H         1 UNK         0.1426 
     74 H74        17.5091  -30.6173  -48.6703 H         1 UNK         0.0716 
     75 H75        18.8600  -31.5118  -48.0181 H         1 UNK         0.0716 
     76 H76        20.9566  -30.1511  -46.5943 H         1 UNK         0.0695 
     77 H77        19.6425  -29.5005  -45.6485 H         1 UNK         0.0695 
     78 H78        21.9615  -27.9319  -46.8311 H         1 UNK         0.0983 
     79 H79        19.3373  -26.9389  -46.2037 H         1 UNK         0.3095 
     80 H80        20.2063  -23.5676  -45.7541 H         1 UNK         0.0454 
     81 H81        20.3976  -23.7119  -48.2413 H         1 UNK         0.0851 
     82 H82        18.8122  -23.1345  -47.7611 H         1 UNK         0.0851 
     83 H83        19.0204  -24.8020  -48.3000 H         1 UNK         0.0851 
     84 H84        17.6776  -24.7679  -46.1816 H         1 UNK         0.2976 
     85 H85        20.6201  -26.8279  -43.8628 H         1 UNK         0.3116 
     86 H86        21.0432  -28.8805  -42.1065 H         1 UNK         0.0646 
     87 H87        19.6874  -26.9224  -41.5381 H         1 UNK         0.0847 
     88 H88        21.1088  -25.8790  -41.5170 H         1 UNK         0.0847 
     89 H89        20.9145  -27.1384  -40.3048 H         1 UNK         0.0847 
     90 H90        23.4121  -26.3636  -42.8708 H         1 UNK         0.3040 
     91 H91        25.6172  -26.0885  -42.4178 H         1 UNK         0.1015 
     92 H92        26.8995  -27.9224  -43.5301 H         1 UNK         0.0786 
     93 H93        25.4424  -27.5211  -44.4223 H         1 UNK         0.0786 
     94 H94        25.4899  -28.9719  -43.4303 H         1 UNK         0.0786 
     95 H95        24.7006  -26.3027  -39.9596 H         1 UNK         0.3172 
     96 H96        25.1894  -26.6273  -37.8218 H         1 UNK         0.0595 
     97 H97        27.5194  -27.0004  -37.1111 H         1 UNK         0.0839 
     98 H98        27.4788  -25.8558  -38.4415 H         1 UNK         0.0839 
     99 H99        27.9770  -27.5235  -38.7226 H         1 UNK         0.0839 
    100 H100       23.5945  -28.4380  -38.7029 H         1 UNK         0.2998 
    101 H101       22.5209  -30.2819  -38.1728 H         1 UNK         0.0822 
    102 H102       23.1764  -29.8158  -35.8080 H         1 UNK         0.0787 
    103 H103       23.0223  -31.5370  -36.1178 H         1 UNK         0.0787 
    104 H104       24.6175  -30.8129  -36.0047 H         1 UNK         0.0787 
    105 H105       23.9248  -30.4252  -40.4142 H         1 UNK         0.3055 
    106 H106       25.3968  -32.9415  -40.6412 H         1 UNK         0.1106 
    107 H107       25.8852  -31.0049  -42.1275 H         1 UNK         0.0828 
    108 H108       25.3506  -32.3874  -43.0708 H         1 UNK         0.0828 
    109 H109       24.2420  -31.0557  -42.7687 H         1 UNK         0.0828 
    110 H110       22.0409  -31.9798  -40.7395 H         1 UNK         0.2931 
    111 H111       20.9283  -34.1475  -42.2136 H         1 UNK         0.0412 
    112 H112       20.2763  -36.2485  -41.6029 H         1 UNK         0.3472 
    113 H113       20.5606  -36.9038  -40.0115 H         1 UNK         0.3472 
    114 H114       18.7957  -33.5555  -40.9002 H         1 UNK         0.0970 
    115 H115       19.7197  -32.3650  -40.0350 H         1 UNK         0.0970 
    116 H116       17.1631  -32.6830  -42.4334 H         1 UNK         0.0612 
    117 H117       18.2537  -33.4263  -43.5826 H         1 UNK         0.0612 
@<TRIPOS>BOND
     1    1    2 1    
     2    1   62 1    
     3    1   63 1    
     4    1   64 1    
     5    2    3 2    
     6    2    4 am   BACKBONE|DICT|INTERRES
     7    4    5 1    
     8    4   65 1    
     9    5    6 1    
    10    5   25 1    
    11    5   66 1    
    12    6    7 1    
    13    6   67 1    
    14    6   68 1    
    15    7    8 1    
    16    8    9 1    
    17    8   69 1    
    18    8   70 1    
    19    9   10 ar   
    20    9   14 ar   
    21   10   11 ar   
    22   10   71 1    
    23   11   12 ar   
    24   11   61 1    
    25   12   13 ar   
    26   12   72 1    
    27   13   14 ar   
    28   13   15 1    
    29   14   73 1    
    30   15   16 1    
    31   15   74 1    
    32   15   75 1    
    33   16   17 1    
    34   17   18 1    
    35   17   76 1    
    36   17   77 1    
    37   18   19 1    
    38   18   27 1    
    39   18   78 1    
    40   19   20 am   BACKBONE|DICT|INTERRES
    41   19   79 1    
    42   20   21 2    
    43   20   22 1    
    44   22   23 1    
    45   22   24 1    
    46   22   80 1    
    47   23   81 1    
    48   23   82 1    
    49   23   83 1    
    50   24   25 am   BACKBONE|DICT|INTERRES
    51   24   84 1    
    52   25   26 2    
    53   27   28 2    
    54   27   29 am   BACKBONE|DICT|INTERRES
    55   29   30 1    
    56   29   85 1    
    57   30   31 1    
    58   30   32 1    
    59   30   86 1    
    60   31   87 1    
    61   31   88 1    
    62   31   89 1    
    63   32   33 2    
    64   32   34 am   BACKBONE|DICT|INTERRES
    65   34   35 1    
    66   34   90 1    
    67   35   36 1    
    68   35   37 1    
    69   35   91 1    
    70   36   92 1    
    71   36   93 1    
    72   36   94 1    
    73   37   38 2    
    74   37   39 am   BACKBONE|DICT|INTERRES
    75   39   40 1    
    76   39   95 1    
    77   40   41 1    
    78   40   42 1    
    79   40   96 1    
    80   41   97 1    
    81   41   98 1    
    82   41   99 1    
    83   42   43 2    
    84   42   44 am   BACKBONE|DICT|INTERRES
    85   44   45 1    
    86   44  100 1    
    87   45   46 1    
    88   45   47 1    
    89   45  101 1    
    90   46  102 1    
    91   46  103 1    
    92   46  104 1    
    93   47   48 2    
    94   47   49 am   BACKBONE|DICT|INTERRES
    95   49   50 1    
    96   49  105 1    
    97   50   51 1    
    98   50   52 1    
    99   50  106 1    
   100   51  107 1    
   101   51  108 1    
   102   51  109 1    
   103   52   53 2    
   104   52   54 am   BACKBONE|DICT|INTERRES
   105   54   55 1    
   106   54  110 1    
   107   55   56 1    
   108   55   59 1    
   109   55  111 1    
   110   56   57 am   BACKBONE|DICT|INTERRES
   111   56   58 2    
   112   57  112 1    
   113   57  113 1    
   114   59   60 1    
   115   59  114 1    
   116   59  115 1    
   117   60   61 1    
   118   61  116 1    
   119   61  117 1    
@<TRIPOS>SUBSTRUCTURE
     1 UNK         1 GROUP             0       ****    0 ROOT    
