@<TRIPOS>MOLECULE
3R8
117   119    1
SMALL
USER_CHARGES


@<TRIPOS>ATOM
      1 CA         23.1294  -27.0904  -46.5060 C.3       0 UNK        -0.2013 
      2 C          22.5849  -25.7772  -47.0585 C.2       0 UNK         0.4866 
      3 O          23.3547  -24.9860  -47.5990 O.2       0 UNK        -0.5176 
      4 N          21.2831  -25.4855  -46.9409 N.am      1 UNK        -0.4884 
      5 CA         20.2336  -26.3017  -46.3210 C.3       1 UNK         0.0853 
      6 C6         19.2425  -26.8833  -47.3654 C.3       10 UNK        -0.0849 
      7 S7         19.8565  -28.4637  -48.0366 S.3       10 UNK        -0.2776 
      8 C8         18.3932  -29.5410  -47.8778 C.3       10 UNK         0.0316 
      9 C9         18.0884  -29.9542  -46.4402 C.ar      10 UNK        -0.0863 
     10 C10        18.7970  -31.0025  -45.8441 C.ar      10 UNK        -0.1009 
     11 C11        18.4520  -31.4672  -44.5690 C.ar      10 UNK        -0.0712 
     12 C12        17.3904  -30.8649  -43.8856 C.ar      10 UNK        -0.0894 
     13 C13        16.6810  -29.8084  -44.4636 C.ar      10 UNK        -0.0745 
     14 C14        17.0376  -29.3544  -45.7377 C.ar      10 UNK        -0.0972 
     15 C15        15.4847  -29.2016  -43.7443 C.3       10 UNK         0.0209 
     16 S16        15.8909  -27.6213  -42.9418 S.3       10 UNK        -0.2568 
     17 C17        16.8190  -28.1585  -41.4632 C.3       10 UNK        -0.0983 
     18 CA         18.3468  -27.9543  -41.6054 C.3       3 UNK         0.0876 
     19 N          18.6827  -26.5875  -42.0131 N.am      3 UNK        -0.4424 
     20 C          19.9087  -26.0884  -42.2083 C.2       2 UNK         0.4918 
     21 O          20.9662  -26.6922  -41.9929 O.2       2 UNK        -0.4875 
     22 CA         19.9588  -24.7189  -42.9007 C.3       2 UNK         0.0481 
     23 CB         20.9271  -23.7510  -42.2012 C.3       2 UNK        -0.1831 
     24 N          20.3844  -24.9751  -44.2762 N.am      2 UNK        -0.4498 
     25 C          19.5599  -25.4901  -45.2010 C.2       1 UNK         0.5027 
     26 O          18.3334  -25.3882  -45.1454 O.2       1 UNK        -0.4969 
     27 C          19.0747  -28.3436  -40.3074 C.2       3 UNK         0.5005 
     28 O          18.9826  -27.6092  -39.3202 O.2       3 UNK        -0.5279 
     29 N          19.8304  -29.4491  -40.3576 N.am      4 UNK        -0.4463 
     30 CA         20.7671  -29.9627  -39.3486 C.3       4 UNK         0.0283 
     31 CB         20.0493  -30.3179  -38.0324 C.3       4 UNK        -0.1875 
     32 C          21.9921  -29.0639  -39.0863 C.2       4 UNK         0.4949 
     33 O          23.1028  -29.5866  -39.0144 O.2       4 UNK        -0.5039 
     34 N          21.7769  -27.7491  -38.9534 N.am      5 UNK        -0.4663 
     35 CA         22.7728  -26.7294  -38.6149 C.3       5 UNK         0.0242 
     36 CB         22.0717  -25.3699  -38.4573 C.3       5 UNK        -0.1982 
     37 C          23.9360  -26.6295  -39.6144 C.2       5 UNK         0.5017 
     38 O          25.0925  -26.6521  -39.1912 O.2       5 UNK        -0.5012 
     39 N          23.6089  -26.5290  -40.9091 N.am      6 UNK        -0.4439 
     40 CA         24.5810  -26.5142  -42.0079 C.3       6 UNK         0.0297 
     41 CB         24.3188  -25.3111  -42.9277 C.3       6 UNK        -0.2006 
     42 C          24.5217  -27.8118  -42.8217 C.2       6 UNK         0.4892 
     43 O          25.5450  -28.2238  -43.3675 O.2       6 UNK        -0.5089 
     44 N          23.3330  -28.4281  -42.9001 N.am      7 UNK        -0.4243 
     45 CA         23.0916  -29.6584  -43.6569 C.3       7 UNK         0.0196 
     46 CB         21.5801  -29.8196  -43.8647 C.3       7 UNK        -0.2007 
     47 C          23.6988  -30.9229  -43.0189 C.2       7 UNK         0.5020 
     48 O          23.8306  -31.9304  -43.7125 O.2       7 UNK        -0.5147 
     49 N          24.0395  -30.8599  -41.7212 N.am      8 UNK        -0.4734 
     50 CA         24.6746  -31.9035  -40.8972 C.3       8 UNK         0.0238 
     51 CB         26.0585  -32.2893  -41.4615 C.3       8 UNK        -0.1912 
     52 C          23.7987  -33.1431  -40.6201 C.2       8 UNK         0.5038 
     53 O          24.2854  -34.1011  -40.0180 O.2       8 UNK        -0.5046 
     54 N          22.5269  -33.1002  -41.0310 N.am      9 UNK        -0.4200 
     55 CA         21.5094  -34.1427  -40.8351 C.3       9 UNK         0.0839 
     56 C          20.8879  -34.2129  -39.4078 C.2       9 UNK         0.5513 
     57 N          21.3538  -33.4396  -38.4352 N.am      9 UNK        -0.7519 
     58 O          19.9786  -35.0038  -39.1699 O.2       9 UNK        -0.4960 
     59 C59        20.4442  -34.1047  -41.9642 C.3       10 UNK        -0.0876 
     60 S60        19.6863  -32.4646  -42.2469 S.3       10 UNK        -0.2414 
     61 C61        19.1704  -32.6784  -43.9830 C.3       10 UNK         0.0169 
     62 H62        22.9968  -27.1365  -45.4270 H         1 UNK         0.0903 
     63 H63        22.6311  -27.9449  -46.9623 H         1 UNK         0.0903 
     64 H64        24.1959  -27.1810  -46.7114 H         1 UNK         0.0903 
     65 H65        20.9646  -24.5933  -47.2950 H         1 UNK         0.3096 
     66 H66        20.6650  -27.1446  -45.7819 H         1 UNK         0.1121 
     67 H67        19.0759  -26.1813  -48.1840 H         1 UNK         0.0849 
     68 H68        18.2587  -27.0698  -46.9350 H         1 UNK         0.0849 
     69 H69        17.5306  -29.0461  -48.3271 H         1 UNK         0.0865 
     70 H70        18.5609  -30.4382  -48.4756 H         1 UNK         0.0865 
     71 H71        19.5959  -31.4814  -46.3937 H         1 UNK         0.1346 
     72 H72        17.0990  -31.2388  -42.9137 H         1 UNK         0.1412 
     73 H73        16.4697  -28.5549  -46.1940 H         1 UNK         0.1426 
     74 H74        15.0773  -29.8961  -43.0079 H         1 UNK         0.0716 
     75 H75        14.6843  -29.0276  -44.4650 H         1 UNK         0.0716 
     76 H76        16.5908  -29.2044  -41.2500 H         1 UNK         0.0695 
     77 H77        16.4365  -27.5879  -40.6144 H         1 UNK         0.0695 
     78 H78        18.6981  -28.6052  -42.4090 H         1 UNK         0.0983 
     79 H79        17.8891  -26.0210  -42.2759 H         1 UNK         0.3095 
     80 H80        18.9671  -24.2609  -42.8990 H         1 UNK         0.0454 
     81 H81        21.9142  -24.1817  -42.0486 H         1 UNK         0.0851 
     82 H82        20.5461  -23.4751  -41.2174 H         1 UNK         0.0851 
     83 H83        21.0471  -22.8290  -42.7700 H         1 UNK         0.0851 
     84 H84        21.3778  -25.0703  -44.4233 H         1 UNK         0.2976 
     85 H85        19.8091  -29.9870  -41.2130 H         1 UNK         0.3116 
     86 H86        21.1536  -30.8924  -39.7661 H         1 UNK         0.0646 
     87 H87        19.6181  -29.4424  -37.5470 H         1 UNK         0.0847 
     88 H88        20.7430  -30.7677  -37.3211 H         1 UNK         0.0847 
     89 H89        19.2486  -31.0377  -38.2018 H         1 UNK         0.0847 
     90 H90        20.8104  -27.4403  -39.0348 H         1 UNK         0.3040 
     91 H91        23.2007  -27.0051  -37.6487 H         1 UNK         0.1015 
     92 H92        21.5610  -25.0694  -39.3727 H         1 UNK         0.0786 
     93 H93        22.7877  -24.5853  -38.2082 H         1 UNK         0.0786 
     94 H94        21.3317  -25.3975  -37.6572 H         1 UNK         0.0786 
     95 H95        22.6226  -26.5281  -41.1594 H         1 UNK         0.3172 
     96 H96        25.5969  -26.4194  -41.6189 H         1 UNK         0.0595 
     97 H97        23.3509  -25.3822  -43.4224 H         1 UNK         0.0839 
     98 H98        25.0759  -25.2509  -43.7110 H         1 UNK         0.0839 
     99 H99        24.3538  -24.3727  -42.3743 H         1 UNK         0.0839 
    100 H100       22.5299  -27.9997  -42.4556 H         1 UNK         0.2998 
    101 H101       23.5561  -29.5497  -44.6395 H         1 UNK         0.0822 
    102 H102       21.1585  -28.9835  -44.4202 H         1 UNK         0.0787 
    103 H103       21.3645  -30.7234  -44.4346 H         1 UNK         0.0787 
    104 H104       21.0492  -29.8909  -42.9175 H         1 UNK         0.0787 
    105 H105       23.8613  -29.9916  -41.2326 H         1 UNK         0.3055 
    106 H106       24.8426  -31.4462  -39.9208 H         1 UNK         0.1106 
    107 H107       26.5979  -32.9362  -40.7686 H         1 UNK         0.0828 
    108 H108       25.9775  -32.8268  -42.4066 H         1 UNK         0.0828 
    109 H109       26.6785  -31.4084  -41.6280 H         1 UNK         0.0828 
    110 H110       22.2176  -32.2807  -41.5302 H         1 UNK         0.2931 
    111 H111       22.0233  -35.0998  -40.9436 H         1 UNK         0.0412 
    112 H112       20.9496  -33.5131  -37.5152 H         1 UNK         0.3472 
    113 H113       22.1323  -32.8236  -38.5996 H         1 UNK         0.3472 
    114 H114       20.9226  -34.4224  -42.8920 H         1 UNK         0.0970 
    115 H115       19.6520  -34.8348  -41.7877 H         1 UNK         0.0970 
    116 H116       20.0528  -32.9181  -44.5786 H         1 UNK         0.0612 
    117 H117       18.5056  -33.5405  -44.0506 H         1 UNK         0.0612 
@<TRIPOS>BOND
     1    1    2 1    
     2    1   62 1    
     3    1   63 1    
     4    1   64 1    
     5    2    3 2    
     6    2    4 am   BACKBONE|DICT|INTERRES
     7    4    5 1    
     8    4   65 1    
     9    5    6 1    
    10    5   25 1    
    11    5   66 1    
    12    6    7 1    
    13    6   67 1    
    14    6   68 1    
    15    7    8 1    
    16    8    9 1    
    17    8   69 1    
    18    8   70 1    
    19    9   10 ar   
    20    9   14 ar   
    21   10   11 ar   
    22   10   71 1    
    23   11   12 ar   
    24   11   61 1    
    25   12   13 ar   
    26   12   72 1    
    27   13   14 ar   
    28   13   15 1    
    29   14   73 1    
    30   15   16 1    
    31   15   74 1    
    32   15   75 1    
    33   16   17 1    
    34   17   18 1    
    35   17   76 1    
    36   17   77 1    
    37   18   19 1    
    38   18   27 1    
    39   18   78 1    
    40   19   20 am   BACKBONE|DICT|INTERRES
    41   19   79 1    
    42   20   21 2    
    43   20   22 1    
    44   22   23 1    
    45   22   24 1    
    46   22   80 1    
    47   23   81 1    
    48   23   82 1    
    49   23   83 1    
    50   24   25 am   BACKBONE|DICT|INTERRES
    51   24   84 1    
    52   25   26 2    
    53   27   28 2    
    54   27   29 am   BACKBONE|DICT|INTERRES
    55   29   30 1    
    56   29   85 1    
    57   30   31 1    
    58   30   32 1    
    59   30   86 1    
    60   31   87 1    
    61   31   88 1    
    62   31   89 1    
    63   32   33 2    
    64   32   34 am   BACKBONE|DICT|INTERRES
    65   34   35 1    
    66   34   90 1    
    67   35   36 1    
    68   35   37 1    
    69   35   91 1    
    70   36   92 1    
    71   36   93 1    
    72   36   94 1    
    73   37   38 2    
    74   37   39 am   BACKBONE|DICT|INTERRES
    75   39   40 1    
    76   39   95 1    
    77   40   41 1    
    78   40   42 1    
    79   40   96 1    
    80   41   97 1    
    81   41   98 1    
    82   41   99 1    
    83   42   43 2    
    84   42   44 am   BACKBONE|DICT|INTERRES
    85   44   45 1    
    86   44  100 1    
    87   45   46 1    
    88   45   47 1    
    89   45  101 1    
    90   46  102 1    
    91   46  103 1    
    92   46  104 1    
    93   47   48 2    
    94   47   49 am   BACKBONE|DICT|INTERRES
    95   49   50 1    
    96   49  105 1    
    97   50   51 1    
    98   50   52 1    
    99   50  106 1    
   100   51  107 1    
   101   51  108 1    
   102   51  109 1    
   103   52   53 2    
   104   52   54 am   BACKBONE|DICT|INTERRES
   105   54   55 1    
   106   54  110 1    
   107   55   56 1    
   108   55   59 1    
   109   55  111 1    
   110   56   57 am   BACKBONE|DICT|INTERRES
   111   56   58 2    
   112   57  112 1    
   113   57  113 1    
   114   59   60 1    
   115   59  114 1    
   116   59  115 1    
   117   60   61 1    
   118   61  116 1    
   119   61  117 1    
@<TRIPOS>SUBSTRUCTURE
     1 UNK         1 GROUP             0       ****    0 ROOT    
