@<TRIPOS>MOLECULE
3R8
117   119    1
SMALL
USER_CHARGES


@<TRIPOS>ATOM
      1 CA         14.3978  -24.6012  -48.2965 C.3       0 UNK        -0.2013 
      2 C          14.6374  -25.6841  -47.2553 C.2       0 UNK         0.4866 
      3 O          14.5102  -26.8697  -47.5625 O.2       0 UNK        -0.5176 
      4 N          14.9850  -25.2888  -46.0271 N.am      1 UNK        -0.4884 
      5 CA         15.3063  -26.1749  -44.9109 C.3       1 UNK         0.0853 
      6 C6         14.0257  -26.7530  -44.2470 C.3       10 UNK        -0.0849 
      7 S7         14.2769  -28.0146  -42.9457 S.3       10 UNK        -0.2776 
      8 C8         14.9811  -29.4324  -43.8529 C.3       10 UNK         0.0316 
      9 C9         16.5046  -29.3901  -43.8751 C.ar      10 UNK        -0.0863 
     10 C10        17.2285  -29.5537  -42.6892 C.ar      10 UNK        -0.1009 
     11 C11        18.6258  -29.5101  -42.6968 C.ar      10 UNK        -0.0712 
     12 C12        19.3005  -29.2963  -43.9018 C.ar      10 UNK        -0.0894 
     13 C13        18.5896  -29.1306  -45.0941 C.ar      10 UNK        -0.0745 
     14 C14        17.1940  -29.1991  -45.0766 C.ar      10 UNK        -0.0972 
     15 C15        19.3207  -28.8882  -46.4066 C.3       10 UNK         0.0209 
     16 S16        19.6335  -27.1145  -46.6916 S.3       10 UNK        -0.2568 
     17 C17        21.1127  -26.8298  -45.6583 C.3       10 UNK        -0.0983 
     18 CA         20.9148  -25.7732  -44.5384 C.3       3 UNK         0.0876 
     19 N          19.7005  -26.0158  -43.7539 N.am      3 UNK        -0.4424 
     20 C          19.1843  -25.1865  -42.8374 C.2       2 UNK         0.4918 
     21 O          19.6380  -24.0689  -42.5834 O.2       2 UNK        -0.4875 
     22 CA         17.9319  -25.7070  -42.1090 C.3       2 UNK         0.0481 
     23 CB         17.3576  -24.7083  -41.0819 C.3       2 UNK        -0.1831 
     24 N          16.9045  -26.1539  -43.0554 N.am      2 UNK        -0.4498 
     25 C          16.2396  -25.4112  -43.9523 C.2       1 UNK         0.5027 
     26 O          16.3507  -24.1858  -44.0595 O.2       1 UNK        -0.4969 
     27 C          22.1678  -25.7398  -43.6367 C.2       3 UNK         0.5005 
     28 O          22.1596  -26.3200  -42.5461 O.2       3 UNK        -0.5279 
     29 N          23.2524  -25.1295  -44.1350 N.am      4 UNK        -0.4463 
     30 CA         24.5673  -25.0516  -43.4832 C.3       4 UNK         0.0283 
     31 CB         25.3612  -23.8840  -44.0992 C.3       4 UNK        -0.1875 
     32 C          25.3466  -26.3865  -43.5273 C.2       4 UNK         0.4949 
     33 O          26.5045  -26.4192  -43.9476 O.2       4 UNK        -0.5039 
     34 N          24.6881  -27.4682  -43.1016 N.am      5 UNK        -0.4663 
     35 CA         25.2468  -28.8090  -42.9451 C.3       5 UNK         0.0242 
     36 CB         24.0891  -29.8202  -43.0052 C.3       5 UNK        -0.1982 
     37 C          25.9916  -28.9367  -41.6072 C.2       5 UNK         0.5017 
     38 O          25.7616  -28.1423  -40.6906 O.2       5 UNK        -0.5012 
     39 N          26.8237  -29.9786  -41.4857 N.am      6 UNK        -0.4439 
     40 CA         27.5589  -30.3403  -40.2678 C.3       6 UNK         0.0297 
     41 CB         28.7728  -31.2053  -40.6567 C.3       6 UNK        -0.2006 
     42 C          26.6538  -31.0256  -39.2208 C.2       6 UNK         0.4892 
     43 O          26.9377  -32.1497  -38.8020 O.2       6 UNK        -0.5089 
     44 N          25.5660  -30.3394  -38.8418 N.am      7 UNK        -0.4243 
     45 CA         24.5002  -30.7024  -37.8959 C.3       7 UNK         0.0196 
     46 CB         25.0557  -30.8948  -36.4712 C.3       7 UNK        -0.2007 
     47 C          23.6382  -31.9059  -38.3190 C.2       7 UNK         0.5020 
     48 O          22.4112  -31.8081  -38.3000 O.2       7 UNK        -0.5147 
     49 N          24.2782  -33.0185  -38.6900 N.am      8 UNK        -0.4734 
     50 CA         23.6538  -34.2856  -39.0720 C.3       8 UNK         0.0238 
     51 CB         24.6495  -35.4267  -38.7895 C.3       8 UNK        -0.1912 
     52 C          23.1629  -34.2740  -40.5321 C.2       8 UNK         0.5038 
     53 O          23.6346  -35.0709  -41.3464 O.2       8 UNK        -0.5046 
     54 N          22.2325  -33.3640  -40.8425 N.am      9 UNK        -0.4200 
     55 CA         21.5164  -33.3053  -42.1245 C.3       9 UNK         0.0839 
     56 C          20.5454  -34.5017  -42.3402 C.2       9 UNK         0.5513 
     57 N          20.2063  -34.8031  -43.5866 N.am      9 UNK        -0.7519 
     58 O          20.0815  -35.1427  -41.3985 O.2       9 UNK        -0.4960 
     59 C59        20.8193  -31.9364  -42.3379 C.3       10 UNK        -0.0876 
     60 S60        19.6666  -31.4472  -41.0080 S.3       10 UNK        -0.2414 
     61 C61        19.4060  -29.6889  -41.4022 C.3       10 UNK         0.0169 
     62 H62        15.0852  -24.7263  -49.1328 H         1 UNK         0.0903 
     63 H63        13.3795  -24.6676  -48.6791 H         1 UNK         0.0903 
     64 H64        14.5411  -23.6018  -47.8858 H         1 UNK         0.0903 
     65 H65        15.1390  -24.3084  -45.8183 H         1 UNK         0.3096 
     66 H66        15.8919  -26.9894  -45.3274 H         1 UNK         0.1121 
     67 H67        13.4372  -25.9415  -43.8151 H         1 UNK         0.0849 
     68 H68        13.3858  -27.2011  -45.0087 H         1 UNK         0.0849 
     69 H69        14.6642  -30.3537  -43.3619 H         1 UNK         0.0865 
     70 H70        14.5686  -29.4701  -44.8626 H         1 UNK         0.0865 
     71 H71        16.7028  -29.7166  -41.7577 H         1 UNK         0.1346 
     72 H72        20.3809  -29.2667  -43.9072 H         1 UNK         0.1412 
     73 H73        16.6443  -29.0882  -46.0022 H         1 UNK         0.1426 
     74 H74        18.7245  -29.2710  -47.2364 H         1 UNK         0.0716 
     75 H75        20.2585  -29.4454  -46.4326 H         1 UNK         0.0716 
     76 H76        21.9128  -26.5122  -46.3295 H         1 UNK         0.0695 
     77 H77        21.4503  -27.7788  -45.2401 H         1 UNK         0.0695 
     78 H78        20.8060  -24.7901  -45.0018 H         1 UNK         0.0983 
     79 H79        19.2530  -26.9078  -43.9069 H         1 UNK         0.3095 
     80 H80        18.2446  -26.5950  -41.5578 H         1 UNK         0.0454 
     81 H81        18.0960  -24.4757  -40.3139 H         1 UNK         0.0851 
     82 H82        16.4830  -25.1182  -40.5771 H         1 UNK         0.0851 
     83 H83        17.0669  -23.7650  -41.5446 H         1 UNK         0.0851 
     84 H84        16.7098  -27.1479  -43.0426 H         1 UNK         0.2976 
     85 H85        23.1930  -24.7190  -45.0564 H         1 UNK         0.3116 
     86 H86        24.4099  -24.8182  -42.4278 H         1 UNK         0.0646 
     87 H87        25.5676  -24.0491  -45.1574 H         1 UNK         0.0847 
     88 H88        24.8217  -22.9415  -44.0041 H         1 UNK         0.0847 
     89 H89        26.3207  -23.7547  -43.5966 H         1 UNK         0.0847 
     90 H90        23.7525  -27.3144  -42.7333 H         1 UNK         0.3040 
     91 H91        25.9455  -29.0067  -43.7612 H         1 UNK         0.1015 
     92 H92        24.4507  -30.8466  -42.9289 H         1 UNK         0.0786 
     93 H93        23.5402  -29.7404  -43.9439 H         1 UNK         0.0786 
     94 H94        23.3829  -29.6610  -42.1891 H         1 UNK         0.0786 
     95 H95        26.9243  -30.6087  -42.2692 H         1 UNK         0.3172 
     96 H96        27.9418  -29.4266  -39.8080 H         1 UNK         0.0595 
     97 H97        28.4692  -32.1440  -41.1221 H         1 UNK         0.0839 
     98 H98        29.3711  -31.4559  -39.7795 H         1 UNK         0.0839 
     99 H99        29.4285  -30.6813  -41.3523 H         1 UNK         0.0839 
    100 H100       25.4416  -29.4395  -39.2994 H         1 UNK         0.2998 
    101 H101       23.8317  -29.8402  -37.8691 H         1 UNK         0.0822 
    102 H102       24.2484  -31.0797  -35.7611 H         1 UNK         0.0787 
    103 H103       25.5887  -30.0069  -36.1312 H         1 UNK         0.0787 
    104 H104       25.7407  -31.7408  -36.4088 H         1 UNK         0.0787 
    105 H105       25.2953  -32.9746  -38.7172 H         1 UNK         0.3055 
    106 H106       22.7756  -34.4502  -38.4433 H         1 UNK         0.1106 
    107 H107       24.9297  -35.4564  -37.7364 H         1 UNK         0.0828 
    108 H108       24.2142  -36.3966  -39.0343 H         1 UNK         0.0828 
    109 H109       25.5629  -35.3198  -39.3760 H         1 UNK         0.0828 
    110 H110       21.9005  -32.7454  -40.1110 H         1 UNK         0.2931 
    111 H111       22.2784  -33.3889  -42.9025 H         1 UNK         0.0412 
    112 H112       20.5780  -34.2879  -44.3695 H         1 UNK         0.3472 
    113 H113       19.5709  -35.5690  -43.7490 H         1 UNK         0.3472 
    114 H114       21.5804  -31.1626  -42.4261 H         1 UNK         0.0970 
    115 H115       20.2815  -31.9273  -43.2876 H         1 UNK         0.0970 
    116 H116       20.3689  -29.1782  -41.4585 H         1 UNK         0.0612 
    117 H117       18.8625  -29.2218  -40.5796 H         1 UNK         0.0612 
@<TRIPOS>BOND
     1    1    2 1    
     2    1   62 1    
     3    1   63 1    
     4    1   64 1    
     5    2    3 2    
     6    2    4 am   BACKBONE|DICT|INTERRES
     7    4    5 1    
     8    4   65 1    
     9    5    6 1    
    10    5   25 1    
    11    5   66 1    
    12    6    7 1    
    13    6   67 1    
    14    6   68 1    
    15    7    8 1    
    16    8    9 1    
    17    8   69 1    
    18    8   70 1    
    19    9   10 ar   
    20    9   14 ar   
    21   10   11 ar   
    22   10   71 1    
    23   11   12 ar   
    24   11   61 1    
    25   12   13 ar   
    26   12   72 1    
    27   13   14 ar   
    28   13   15 1    
    29   14   73 1    
    30   15   16 1    
    31   15   74 1    
    32   15   75 1    
    33   16   17 1    
    34   17   18 1    
    35   17   76 1    
    36   17   77 1    
    37   18   19 1    
    38   18   27 1    
    39   18   78 1    
    40   19   20 am   BACKBONE|DICT|INTERRES
    41   19   79 1    
    42   20   21 2    
    43   20   22 1    
    44   22   23 1    
    45   22   24 1    
    46   22   80 1    
    47   23   81 1    
    48   23   82 1    
    49   23   83 1    
    50   24   25 am   BACKBONE|DICT|INTERRES
    51   24   84 1    
    52   25   26 2    
    53   27   28 2    
    54   27   29 am   BACKBONE|DICT|INTERRES
    55   29   30 1    
    56   29   85 1    
    57   30   31 1    
    58   30   32 1    
    59   30   86 1    
    60   31   87 1    
    61   31   88 1    
    62   31   89 1    
    63   32   33 2    
    64   32   34 am   BACKBONE|DICT|INTERRES
    65   34   35 1    
    66   34   90 1    
    67   35   36 1    
    68   35   37 1    
    69   35   91 1    
    70   36   92 1    
    71   36   93 1    
    72   36   94 1    
    73   37   38 2    
    74   37   39 am   BACKBONE|DICT|INTERRES
    75   39   40 1    
    76   39   95 1    
    77   40   41 1    
    78   40   42 1    
    79   40   96 1    
    80   41   97 1    
    81   41   98 1    
    82   41   99 1    
    83   42   43 2    
    84   42   44 am   BACKBONE|DICT|INTERRES
    85   44   45 1    
    86   44  100 1    
    87   45   46 1    
    88   45   47 1    
    89   45  101 1    
    90   46  102 1    
    91   46  103 1    
    92   46  104 1    
    93   47   48 2    
    94   47   49 am   BACKBONE|DICT|INTERRES
    95   49   50 1    
    96   49  105 1    
    97   50   51 1    
    98   50   52 1    
    99   50  106 1    
   100   51  107 1    
   101   51  108 1    
   102   51  109 1    
   103   52   53 2    
   104   52   54 am   BACKBONE|DICT|INTERRES
   105   54   55 1    
   106   54  110 1    
   107   55   56 1    
   108   55   59 1    
   109   55  111 1    
   110   56   57 am   BACKBONE|DICT|INTERRES
   111   56   58 2    
   112   57  112 1    
   113   57  113 1    
   114   59   60 1    
   115   59  114 1    
   116   59  115 1    
   117   60   61 1    
   118   61  116 1    
   119   61  117 1    
@<TRIPOS>SUBSTRUCTURE
     1 UNK         1 GROUP             0       ****    0 ROOT    
