@<TRIPOS>MOLECULE
3R8
117   119    1
SMALL
USER_CHARGES


@<TRIPOS>ATOM
      1 CA         14.5573  -22.8099  -43.3355 C.3       0 UNK        -0.2013 
      2 C          15.0094  -23.6651  -44.5096 C.2       0 UNK         0.4866 
      3 O          14.7462  -23.3146  -45.6601 O.2       0 UNK        -0.5176 
      4 N          15.6888  -24.7849  -44.2289 N.am      1 UNK        -0.4884 
      5 CA         16.1850  -25.7350  -45.2351 C.3       1 UNK         0.0853 
      6 C6         16.5219  -27.1119  -44.6111 C.3       10 UNK        -0.0849 
      7 S7         15.0674  -27.9521  -43.8883 S.3       10 UNK        -0.2776 
      8 C8         15.5272  -28.1552  -42.1326 C.3       10 UNK         0.0316 
      9 C9         16.8397  -28.9095  -41.9616 C.ar      10 UNK        -0.0863 
     10 C10        16.9212  -30.2763  -42.2516 C.ar      10 UNK        -0.1009 
     11 C11        18.1436  -30.9506  -42.1526 C.ar      10 UNK        -0.0712 
     12 C12        19.2870  -30.2440  -41.7689 C.ar      10 UNK        -0.0894 
     13 C13        19.2111  -28.8876  -41.4515 C.ar      10 UNK        -0.0745 
     14 C14        17.9828  -28.2283  -41.5341 C.ar      10 UNK        -0.0972 
     15 C15        20.4637  -28.1393  -41.0318 C.3       10 UNK         0.0209 
     16 S16        20.8507  -26.7538  -42.1412 S.3       10 UNK        -0.2568 
     17 C17        21.0980  -27.6177  -43.7358 C.3       10 UNK        -0.0983 
     18 CA         21.5277  -26.6778  -44.8939 C.3       3 UNK         0.0876 
     19 N          20.6102  -25.5467  -45.0148 N.am      3 UNK        -0.4424 
     20 C          20.5110  -24.7140  -46.0561 C.2       2 UNK         0.4918 
     21 O          21.2150  -24.7862  -47.0651 O.2       2 UNK        -0.4875 
     22 CA         19.3948  -23.6530  -45.9462 C.3       2 UNK         0.0481 
     23 CB         19.1725  -22.8698  -47.2574 C.3       2 UNK        -0.1831 
     24 N          18.1318  -24.2247  -45.4503 N.am      2 UNK        -0.4498 
     25 C          17.4077  -25.2059  -46.0185 C.2       1 UNK         0.5027 
     26 O          17.6801  -25.7181  -47.1051 O.2       1 UNK        -0.4969 
     27 C          22.9959  -26.2330  -44.7320 C.2       3 UNK         0.5005 
     28 O          23.2707  -25.2365  -44.0576 O.2       3 UNK        -0.5279 
     29 N          23.9126  -27.0222  -45.3073 N.am      4 UNK        -0.4463 
     30 CA         25.3467  -26.9637  -45.0122 C.3       4 UNK         0.0283 
     31 CB         26.1528  -27.3298  -46.2693 C.3       4 UNK        -0.1875 
     32 C          25.6961  -27.9089  -43.8502 C.2       4 UNK         0.4949 
     33 O          26.4850  -27.5429  -42.9785 O.2       4 UNK        -0.5039 
     34 N          25.0864  -29.1033  -43.8437 N.am      5 UNK        -0.4663 
     35 CA         25.2535  -30.1365  -42.8219 C.3       5 UNK         0.0242 
     36 CB         24.9762  -31.5097  -43.4581 C.3       5 UNK        -0.1982 
     37 C          24.3460  -29.8565  -41.6124 C.2       5 UNK         0.5017 
     38 O          23.3485  -30.5568  -41.4170 O.2       5 UNK        -0.5012 
     39 N          24.7080  -28.8148  -40.8492 N.am      6 UNK        -0.4439 
     40 CA         24.0382  -28.3249  -39.6400 C.3       6 UNK         0.0297 
     41 CB         24.8944  -27.2185  -39.0028 C.3       6 UNK        -0.2006 
     42 C          23.7562  -29.4484  -38.6279 C.2       6 UNK         0.4892 
     43 O          24.7013  -30.0717  -38.1414 O.2       6 UNK        -0.5089 
     44 N          22.4646  -29.7153  -38.3855 N.am      7 UNK        -0.4243 
     45 CA         21.8721  -30.7725  -37.5487 C.3       7 UNK         0.0196 
     46 CB         22.2867  -30.6083  -36.0732 C.3       7 UNK        -0.2007 
     47 C          22.1127  -32.2207  -38.0265 C.2       7 UNK         0.5020 
     48 O          21.2791  -33.0829  -37.7491 O.2       7 UNK        -0.5147 
     49 N          23.2325  -32.4773  -38.7113 N.am      8 UNK        -0.4734 
     50 CA         23.6508  -33.7930  -39.1951 C.3       8 UNK         0.0238 
     51 CB         25.1410  -33.7370  -39.5692 C.3       8 UNK        -0.1912 
     52 C          22.8203  -34.3173  -40.3775 C.2       8 UNK         0.5038 
     53 O          22.6389  -35.5312  -40.4770 O.2       8 UNK        -0.5046 
     54 N          22.3640  -33.4131  -41.2569 N.am      9 UNK        -0.4200 
     55 CA         21.6084  -33.7033  -42.4931 C.3       9 UNK         0.0839 
     56 C          22.4146  -34.4344  -43.6117 C.2       9 UNK         0.5513 
     57 N          23.7077  -34.6899  -43.4569 N.am      9 UNK        -0.7519 
     58 O          21.8621  -34.7467  -44.6634 O.2       9 UNK        -0.4960 
     59 C59        20.2328  -34.3931  -42.2394 C.3       10 UNK        -0.0876 
     60 S60        19.1063  -33.3897  -41.2157 S.3       10 UNK        -0.2414 
     61 C61        18.2441  -32.4278  -42.5059 C.3       10 UNK         0.0169 
     62 H62        14.9894  -21.8123  -43.4095 H         1 UNK         0.0903 
     63 H63        13.4720  -22.7121  -43.3394 H         1 UNK         0.0903 
     64 H64        14.8551  -23.2385  -42.3788 H         1 UNK         0.0903 
     65 H65        15.8554  -25.0376  -43.2653 H         1 UNK         0.3096 
     66 H66        15.3922  -25.8862  -45.9718 H         1 UNK         0.1121 
     67 H67        16.9282  -27.7868  -45.3675 H         1 UNK         0.0849 
     68 H68        17.3089  -26.9983  -43.8657 H         1 UNK         0.0849 
     69 H69        14.7318  -28.6965  -41.6185 H         1 UNK         0.0865 
     70 H70        15.5785  -27.1726  -41.6611 H         1 UNK         0.0865 
     71 H71        16.0365  -30.8056  -42.5788 H         1 UNK         0.1346 
     72 H72        20.2388  -30.7553  -41.7134 H         1 UNK         0.1412 
     73 H73        17.9299  -27.1736  -41.2999 H         1 UNK         0.1426 
     74 H74        21.3175  -28.8157  -41.0129 H         1 UNK         0.0716 
     75 H75        20.3329  -27.7589  -40.0181 H         1 UNK         0.0716 
     76 H76        20.1580  -28.1033  -44.0033 H         1 UNK         0.0695 
     77 H77        21.8184  -28.4264  -43.5953 H         1 UNK         0.0695 
     78 H78        21.4539  -27.2426  -45.8261 H         1 UNK         0.0983 
     79 H79        20.0266  -25.3842  -44.2079 H         1 UNK         0.3095 
     80 H80        19.7259  -22.9389  -45.1909 H         1 UNK         0.0454 
     81 H81        18.3901  -22.1196  -47.1435 H         1 UNK         0.0851 
     82 H82        18.8906  -23.5256  -48.0816 H         1 UNK         0.0851 
     83 H83        20.0813  -22.3467  -47.5572 H         1 UNK         0.0851 
     84 H84        17.8066  -23.8707  -44.5614 H         1 UNK         0.2976 
     85 H85        23.5992  -27.7852  -45.8902 H         1 UNK         0.3116 
     86 H86        25.6265  -25.9495  -44.7185 H         1 UNK         0.0646 
     87 H87        27.2245  -27.2813  -46.0710 H         1 UNK         0.0847 
     88 H88        25.9451  -26.6392  -47.0868 H         1 UNK         0.0847 
     89 H89        25.9325  -28.3391  -46.6192 H         1 UNK         0.0847 
     90 H90        24.4366  -29.3188  -44.5836 H         1 UNK         0.3040 
     91 H91        26.2881  -30.1366  -42.4703 H         1 UNK         0.1015 
     92 H92        25.6559  -31.7088  -44.2867 H         1 UNK         0.0786 
     93 H93        23.9558  -31.5868  -43.8358 H         1 UNK         0.0786 
     94 H94        25.1171  -32.3073  -42.7290 H         1 UNK         0.0786 
     95 H95        25.5233  -28.2940  -41.1503 H         1 UNK         0.3172 
     96 H96        23.0967  -27.8711  -39.9477 H         1 UNK         0.0595 
     97 H97        25.8796  -27.5865  -38.7128 H         1 UNK         0.0839 
     98 H98        24.4172  -26.8241  -38.1045 H         1 UNK         0.0839 
     99 H99        25.0363  -26.3813  -39.6866 H         1 UNK         0.0839 
    100 H100       21.7850  -29.1536  -38.8759 H         1 UNK         0.2998 
    101 H101       20.7935  -30.6148  -37.6041 H         1 UNK         0.0822 
    102 H102       23.3548  -30.7739  -35.9288 H         1 UNK         0.0787 
    103 H103       22.0479  -29.6117  -35.7020 H         1 UNK         0.0787 
    104 H104       21.7612  -31.3243  -35.4397 H         1 UNK         0.0787 
    105 H105       23.8818  -31.7071  -38.8361 H         1 UNK         0.3055 
    106 H106       23.5308  -34.5059  -38.3760 H         1 UNK         0.1106 
    107 H107       25.4915  -34.7040  -39.9333 H         1 UNK         0.0828 
    108 H108       25.3348  -33.0012  -40.3503 H         1 UNK         0.0828 
    109 H109       25.7549  -33.4763  -38.7068 H         1 UNK         0.0828 
    110 H110       22.6048  -32.4375  -41.1126 H         1 UNK         0.2931 
    111 H111       21.4001  -32.7212  -42.9191 H         1 UNK         0.0412 
    112 H112       24.1741  -34.4594  -42.5961 H         1 UNK         0.3472 
    113 H113       24.2103  -35.1521  -44.1982 H         1 UNK         0.3472 
    114 H114       19.7257  -34.6205  -43.1788 H         1 UNK         0.0970 
    115 H115       20.3713  -35.3581  -41.7507 H         1 UNK         0.0970 
    116 H116       18.7705  -32.5079  -43.4577 H         1 UNK         0.0612 
    117 H117       17.2550  -32.8618  -42.6598 H         1 UNK         0.0612 
@<TRIPOS>BOND
     1    1    2 1    
     2    1   62 1    
     3    1   63 1    
     4    1   64 1    
     5    2    3 2    
     6    2    4 am   BACKBONE|DICT|INTERRES
     7    4    5 1    
     8    4   65 1    
     9    5    6 1    
    10    5   25 1    
    11    5   66 1    
    12    6    7 1    
    13    6   67 1    
    14    6   68 1    
    15    7    8 1    
    16    8    9 1    
    17    8   69 1    
    18    8   70 1    
    19    9   10 ar   
    20    9   14 ar   
    21   10   11 ar   
    22   10   71 1    
    23   11   12 ar   
    24   11   61 1    
    25   12   13 ar   
    26   12   72 1    
    27   13   14 ar   
    28   13   15 1    
    29   14   73 1    
    30   15   16 1    
    31   15   74 1    
    32   15   75 1    
    33   16   17 1    
    34   17   18 1    
    35   17   76 1    
    36   17   77 1    
    37   18   19 1    
    38   18   27 1    
    39   18   78 1    
    40   19   20 am   BACKBONE|DICT|INTERRES
    41   19   79 1    
    42   20   21 2    
    43   20   22 1    
    44   22   23 1    
    45   22   24 1    
    46   22   80 1    
    47   23   81 1    
    48   23   82 1    
    49   23   83 1    
    50   24   25 am   BACKBONE|DICT|INTERRES
    51   24   84 1    
    52   25   26 2    
    53   27   28 2    
    54   27   29 am   BACKBONE|DICT|INTERRES
    55   29   30 1    
    56   29   85 1    
    57   30   31 1    
    58   30   32 1    
    59   30   86 1    
    60   31   87 1    
    61   31   88 1    
    62   31   89 1    
    63   32   33 2    
    64   32   34 am   BACKBONE|DICT|INTERRES
    65   34   35 1    
    66   34   90 1    
    67   35   36 1    
    68   35   37 1    
    69   35   91 1    
    70   36   92 1    
    71   36   93 1    
    72   36   94 1    
    73   37   38 2    
    74   37   39 am   BACKBONE|DICT|INTERRES
    75   39   40 1    
    76   39   95 1    
    77   40   41 1    
    78   40   42 1    
    79   40   96 1    
    80   41   97 1    
    81   41   98 1    
    82   41   99 1    
    83   42   43 2    
    84   42   44 am   BACKBONE|DICT|INTERRES
    85   44   45 1    
    86   44  100 1    
    87   45   46 1    
    88   45   47 1    
    89   45  101 1    
    90   46  102 1    
    91   46  103 1    
    92   46  104 1    
    93   47   48 2    
    94   47   49 am   BACKBONE|DICT|INTERRES
    95   49   50 1    
    96   49  105 1    
    97   50   51 1    
    98   50   52 1    
    99   50  106 1    
   100   51  107 1    
   101   51  108 1    
   102   51  109 1    
   103   52   53 2    
   104   52   54 am   BACKBONE|DICT|INTERRES
   105   54   55 1    
   106   54  110 1    
   107   55   56 1    
   108   55   59 1    
   109   55  111 1    
   110   56   57 am   BACKBONE|DICT|INTERRES
   111   56   58 2    
   112   57  112 1    
   113   57  113 1    
   114   59   60 1    
   115   59  114 1    
   116   59  115 1    
   117   60   61 1    
   118   61  116 1    
   119   61  117 1    
@<TRIPOS>SUBSTRUCTURE
     1 UNK         1 GROUP             0       ****    0 ROOT    
