@<TRIPOS>MOLECULE
3R8
117   119    1
SMALL
USER_CHARGES


@<TRIPOS>ATOM
      1 CA         16.8000  -22.3691  -40.7361 C.3       0 UNK        -0.2013 
      2 C          16.5373  -23.2148  -41.9734 C.2       0 UNK         0.4866 
      3 O          15.8357  -22.7692  -42.8824 O.2       0 UNK        -0.5176 
      4 N          17.0866  -24.4346  -42.0106 N.am      1 UNK        -0.4884 
      5 CA         17.0110  -25.3570  -43.1481 C.3       1 UNK         0.0853 
      6 C6         17.1749  -26.8299  -42.6903 C.3       10 UNK        -0.0849 
      7 S7         18.7403  -27.1773  -41.8138 S.3       10 UNK        -0.2776 
      8 C8         18.5945  -28.9781  -41.5263 C.3       10 UNK         0.0316 
      9 C9         18.8930  -29.8835  -42.7258 C.ar      10 UNK        -0.0863 
     10 C10        18.9256  -31.2652  -42.5180 C.ar      10 UNK        -0.1009 
     11 C11        19.2323  -32.1455  -43.5593 C.ar      10 UNK        -0.0712 
     12 C12        19.5011  -31.6368  -44.8334 C.ar      10 UNK        -0.0894 
     13 C13        19.4687  -30.2588  -45.0627 C.ar      10 UNK        -0.0745 
     14 C14        19.1521  -29.3945  -44.0115 C.ar      10 UNK        -0.0972 
     15 C15        19.7674  -29.6949  -46.4445 C.3       10 UNK         0.0209 
     16 S16        21.5500  -29.4328  -46.7413 S.3       10 UNK        -0.2568 
     17 C17        22.0729  -28.3037  -45.4020 C.3       10 UNK        -0.0983 
     18 CA         21.8744  -26.8037  -45.7376 C.3       3 UNK         0.0876 
     19 N          20.4676  -26.4410  -45.8981 N.am      3 UNK        -0.4424 
     20 C          20.0208  -25.4802  -46.7140 C.2       2 UNK         0.4918 
     21 O          20.7484  -24.8337  -47.4687 O.2       2 UNK        -0.4875 
     22 CA         18.5076  -25.1883  -46.7061 C.3       2 UNK         0.0481 
     23 CB         17.8273  -25.8937  -47.8907 C.3       2 UNK        -0.1831 
     24 N          17.8015  -25.5427  -45.4672 N.am      2 UNK        -0.4498 
     25 C          17.9908  -24.9527  -44.2768 C.2       1 UNK         0.5027 
     26 O          18.8748  -24.1173  -44.0674 O.2       1 UNK        -0.4969 
     27 C          22.4488  -25.9146  -44.6238 C.2       3 UNK         0.5005 
     28 O          22.0737  -26.0902  -43.4626 O.2       3 UNK        -0.5279 
     29 N          23.3506  -24.9901  -44.9852 N.am      4 UNK        -0.4463 
     30 CA         23.9539  -23.9916  -44.0893 C.3       4 UNK         0.0283 
     31 CB         24.8611  -23.0607  -44.9102 C.3       4 UNK        -0.1875 
     32 C          24.7285  -24.5713  -42.8893 C.2       4 UNK         0.4949 
     33 O          24.8949  -23.8756  -41.8875 O.2       4 UNK        -0.5039 
     34 N          25.1711  -25.8311  -43.0008 N.am      5 UNK        -0.4663 
     35 CA         25.8003  -26.5973  -41.9239 C.3       5 UNK         0.0242 
     36 CB         26.4673  -27.8450  -42.5270 C.3       5 UNK        -0.1982 
     37 C          24.8284  -27.0057  -40.7990 C.2       5 UNK         0.5017 
     38 O          25.3007  -27.3039  -39.7015 O.2       5 UNK        -0.5012 
     39 N          23.5140  -27.0307  -41.0860 N.am      6 UNK        -0.4439 
     40 CA         22.4187  -27.4520  -40.2005 C.3       6 UNK         0.0297 
     41 CB         22.1897  -26.4097  -39.0865 C.3       6 UNK        -0.2006 
     42 C          22.6095  -28.8849  -39.6616 C.2       6 UNK         0.4892 
     43 O          22.5498  -29.1105  -38.4508 O.2       6 UNK        -0.5089 
     44 N          22.8880  -29.8149  -40.5846 N.am      7 UNK        -0.4243 
     45 CA         23.1871  -31.2215  -40.3121 C.3       7 UNK         0.0196 
     46 CB         23.6611  -31.8787  -41.6197 C.3       7 UNK        -0.2007 
     47 C          21.9908  -31.9968  -39.7332 C.2       7 UNK         0.5020 
     48 O          20.8397  -31.6564  -40.0068 O.2       7 UNK        -0.5147 
     49 N          22.2898  -33.0594  -38.9752 N.am      8 UNK        -0.4734 
     50 CA         21.2908  -34.0166  -38.4855 C.3       8 UNK         0.0238 
     51 CB         21.8197  -34.6993  -37.2132 C.3       8 UNK        -0.1912 
     52 C          20.9202  -35.0692  -39.5463 C.2       8 UNK         0.5038 
     53 O          19.7987  -35.5770  -39.5230 O.2       8 UNK        -0.5046 
     54 N          21.8707  -35.3767  -40.4415 N.am      9 UNK        -0.4200 
     55 CA         21.7676  -36.3502  -41.5448 C.3       9 UNK         0.0839 
     56 C          21.6307  -37.8376  -41.0952 C.2       9 UNK         0.5513 
     57 N          21.9596  -38.1862  -39.8570 N.am      9 UNK        -0.7519 
     58 O          21.2518  -38.6980  -41.8862 O.2       9 UNK        -0.4960 
     59 C59        20.7204  -35.9526  -42.6253 C.3       10 UNK        -0.0876 
     60 S60        20.9817  -34.2653  -43.2730 S.3       10 UNK        -0.2414 
     61 C61        19.2736  -33.6433  -43.3009 C.3       10 UNK         0.0169 
     62 H62        17.3086  -21.4464  -41.0141 H         1 UNK         0.0903 
     63 H63        15.8589  -22.1078  -40.2529 H         1 UNK         0.0903 
     64 H64        17.4206  -22.8924  -40.0088 H         1 UNK         0.0903 
     65 H65        17.6873  -24.7393  -41.2571 H         1 UNK         0.3096 
     66 H66        16.0083  -25.2662  -43.5732 H         1 UNK         0.1121 
     67 H67        17.0641  -27.5113  -43.5344 H         1 UNK         0.0849 
     68 H68        16.3565  -27.0824  -42.0139 H         1 UNK         0.0849 
     69 H69        19.2876  -29.2396  -40.7247 H         1 UNK         0.0865 
     70 H70        17.5953  -29.2000  -41.1490 H         1 UNK         0.0865 
     71 H71        18.7285  -31.6587  -41.5299 H         1 UNK         0.1346 
     72 H72        19.7475  -32.3129  -45.6407 H         1 UNK         0.1412 
     73 H73        19.1396  -28.3347  -44.2032 H         1 UNK         0.1426 
     74 H74        19.2279  -28.7610  -46.5995 H         1 UNK         0.0716 
     75 H75        19.3897  -30.3804  -47.2047 H         1 UNK         0.0716 
     76 H76        21.5909  -28.5737  -44.4637 H         1 UNK         0.0695 
     77 H77        23.1342  -28.4998  -45.2380 H         1 UNK         0.0695 
     78 H78        22.4117  -26.6010  -46.6671 H         1 UNK         0.0983 
     79 H79        19.8213  -26.8564  -45.2478 H         1 UNK         0.3095 
     80 H80        18.3920  -24.1117  -46.8481 H         1 UNK         0.0454 
     81 H81        18.3106  -25.6303  -48.8328 H         1 UNK         0.0851 
     82 H82        17.8710  -26.9792  -47.7966 H         1 UNK         0.0851 
     83 H83        16.7798  -25.6050  -47.9781 H         1 UNK         0.0851 
     84 H84        17.0523  -26.2139  -45.5613 H         1 UNK         0.2976 
     85 H85        23.5936  -24.9129  -45.9632 H         1 UNK         0.3116 
     86 H86        23.1367  -23.3946  -43.6790 H         1 UNK         0.0646 
     87 H87        25.3009  -22.2870  -44.2790 H         1 UNK         0.0847 
     88 H88        24.3037  -22.5524  -45.6972 H         1 UNK         0.0847 
     89 H89        25.6832  -23.6054  -45.3762 H         1 UNK         0.0847 
     90 H90        25.0049  -26.3160  -43.8703 H         1 UNK         0.3040 
     91 H91        26.5764  -25.9756  -41.4715 H         1 UNK         0.1015 
     92 H92        27.2158  -27.5749  -43.2723 H         1 UNK         0.0786 
     93 H93        25.7392  -28.5033  -43.0029 H         1 UNK         0.0786 
     94 H94        26.9762  -28.4265  -41.7567 H         1 UNK         0.0786 
     95 H95        23.2171  -26.7254  -42.0102 H         1 UNK         0.3172 
     96 H96        21.5214  -27.4746  -40.8193 H         1 UNK         0.0595 
     97 H97        22.0135  -25.4183  -39.5039 H         1 UNK         0.0839 
     98 H98        23.0432  -26.3436  -38.4110 H         1 UNK         0.0839 
     99 H99        21.3168  -26.6678  -38.4856 H         1 UNK         0.0839 
    100 H100       22.8874  -29.5361  -41.5542 H         1 UNK         0.2998 
    101 H101       24.0026  -31.2504  -39.5862 H         1 UNK         0.0822 
    102 H102       24.5416  -31.3770  -42.0217 H         1 UNK         0.0787 
    103 H103       23.9299  -32.9240  -41.4632 H         1 UNK         0.0787 
    104 H104       22.8823  -31.8558  -42.3840 H         1 UNK         0.0787 
    105 H105       23.2585  -33.2600  -38.7692 H         1 UNK         0.3055 
    106 H106       20.3758  -33.4783  -38.2262 H         1 UNK         0.1106 
    107 H107       22.7413  -35.2521  -37.3994 H         1 UNK         0.0828 
    108 H108       22.0183  -33.9709  -36.4268 H         1 UNK         0.0828 
    109 H109       21.0892  -35.4071  -36.8185 H         1 UNK         0.0828 
    110 H110       22.7577  -34.9037  -40.3670 H         1 UNK         0.2931 
    111 H111       22.7423  -36.3130  -42.0327 H         1 UNK         0.0412 
    112 H112       21.8784  -39.1516  -39.5778 H         1 UNK         0.3472 
    113 H113       22.2845  -37.4958  -39.1997 H         1 UNK         0.3472 
    114 H114       19.7115  -36.0487  -42.2214 H         1 UNK         0.0970 
    115 H115       20.7688  -36.6368  -43.4743 H         1 UNK         0.0970 
    116 H116       18.7911  -33.8734  -42.3494 H         1 UNK         0.0612 
    117 H117       18.7094  -34.1679  -44.0733 H         1 UNK         0.0612 
@<TRIPOS>BOND
     1    1    2 1    
     2    1   62 1    
     3    1   63 1    
     4    1   64 1    
     5    2    3 2    
     6    2    4 am   BACKBONE|DICT|INTERRES
     7    4    5 1    
     8    4   65 1    
     9    5    6 1    
    10    5   25 1    
    11    5   66 1    
    12    6    7 1    
    13    6   67 1    
    14    6   68 1    
    15    7    8 1    
    16    8    9 1    
    17    8   69 1    
    18    8   70 1    
    19    9   10 ar   
    20    9   14 ar   
    21   10   11 ar   
    22   10   71 1    
    23   11   12 ar   
    24   11   61 1    
    25   12   13 ar   
    26   12   72 1    
    27   13   14 ar   
    28   13   15 1    
    29   14   73 1    
    30   15   16 1    
    31   15   74 1    
    32   15   75 1    
    33   16   17 1    
    34   17   18 1    
    35   17   76 1    
    36   17   77 1    
    37   18   19 1    
    38   18   27 1    
    39   18   78 1    
    40   19   20 am   BACKBONE|DICT|INTERRES
    41   19   79 1    
    42   20   21 2    
    43   20   22 1    
    44   22   23 1    
    45   22   24 1    
    46   22   80 1    
    47   23   81 1    
    48   23   82 1    
    49   23   83 1    
    50   24   25 am   BACKBONE|DICT|INTERRES
    51   24   84 1    
    52   25   26 2    
    53   27   28 2    
    54   27   29 am   BACKBONE|DICT|INTERRES
    55   29   30 1    
    56   29   85 1    
    57   30   31 1    
    58   30   32 1    
    59   30   86 1    
    60   31   87 1    
    61   31   88 1    
    62   31   89 1    
    63   32   33 2    
    64   32   34 am   BACKBONE|DICT|INTERRES
    65   34   35 1    
    66   34   90 1    
    67   35   36 1    
    68   35   37 1    
    69   35   91 1    
    70   36   92 1    
    71   36   93 1    
    72   36   94 1    
    73   37   38 2    
    74   37   39 am   BACKBONE|DICT|INTERRES
    75   39   40 1    
    76   39   95 1    
    77   40   41 1    
    78   40   42 1    
    79   40   96 1    
    80   41   97 1    
    81   41   98 1    
    82   41   99 1    
    83   42   43 2    
    84   42   44 am   BACKBONE|DICT|INTERRES
    85   44   45 1    
    86   44  100 1    
    87   45   46 1    
    88   45   47 1    
    89   45  101 1    
    90   46  102 1    
    91   46  103 1    
    92   46  104 1    
    93   47   48 2    
    94   47   49 am   BACKBONE|DICT|INTERRES
    95   49   50 1    
    96   49  105 1    
    97   50   51 1    
    98   50   52 1    
    99   50  106 1    
   100   51  107 1    
   101   51  108 1    
   102   51  109 1    
   103   52   53 2    
   104   52   54 am   BACKBONE|DICT|INTERRES
   105   54   55 1    
   106   54  110 1    
   107   55   56 1    
   108   55   59 1    
   109   55  111 1    
   110   56   57 am   BACKBONE|DICT|INTERRES
   111   56   58 2    
   112   57  112 1    
   113   57  113 1    
   114   59   60 1    
   115   59  114 1    
   116   59  115 1    
   117   60   61 1    
   118   61  116 1    
   119   61  117 1    
@<TRIPOS>SUBSTRUCTURE
     1 UNK         1 GROUP             0       ****    0 ROOT    
