@<TRIPOS>MOLECULE
3R8
117   119    1
SMALL
USER_CHARGES


@<TRIPOS>ATOM
      1 CA         13.0820  -23.0607  -46.5238 C.3       0 UNK        -0.2013 
      2 C          14.4353  -23.6962  -46.2416 C.2       0 UNK         0.4866 
      3 O          15.4678  -23.1008  -46.5520 O.2       0 UNK        -0.5176 
      4 N          14.4386  -24.9042  -45.6645 N.am      1 UNK        -0.4884 
      5 CA         15.6437  -25.6446  -45.2757 C.3       1 UNK         0.0853 
      6 C6         15.3242  -27.1214  -44.9434 C.3       10 UNK        -0.0849 
      7 S7         14.8094  -28.0473  -46.4300 S.3       10 UNK        -0.2776 
      8 C8         14.9303  -29.7807  -45.8649 C.3       10 UNK         0.0316 
      9 C9         16.2982  -30.1373  -45.2906 C.ar      10 UNK        -0.0863 
     10 C10        16.3908  -30.7566  -44.0408 C.ar      10 UNK        -0.1009 
     11 C11        17.6332  -31.0652  -43.4768 C.ar      10 UNK        -0.0712 
     12 C12        18.7971  -30.7418  -44.1895 C.ar      10 UNK        -0.0894 
     13 C13        18.7198  -30.1229  -45.4413 C.ar      10 UNK        -0.0745 
     14 C14        17.4690  -29.8386  -45.9929 C.ar      10 UNK        -0.0972 
     15 C15        19.9825  -29.7510  -46.2043 C.3       10 UNK         0.0209 
     16 S16        20.4212  -28.0005  -45.9575 S.3       10 UNK        -0.2568 
     17 C17        21.2377  -28.0819  -44.3310 C.3       10 UNK        -0.0983 
     18 CA         21.4272  -26.6914  -43.6717 C.3       3 UNK         0.0876 
     19 N          20.1421  -26.0120  -43.4583 N.am      3 UNK        -0.4424 
     20 C          19.9692  -24.6915  -43.3159 C.2       2 UNK         0.4918 
     21 O          20.9005  -23.8839  -43.3225 O.2       2 UNK        -0.4875 
     22 CA         18.5217  -24.2030  -43.1520 C.3       2 UNK         0.0481 
     23 CB         18.3961  -22.6657  -43.2047 C.3       2 UNK        -0.1831 
     24 N          17.6715  -24.8222  -44.1694 N.am      2 UNK        -0.4498 
     25 C          16.3431  -24.9628  -44.0826 C.2       1 UNK         0.5027 
     26 O          15.6740  -24.6038  -43.1099 O.2       1 UNK        -0.4969 
     27 C          22.2463  -26.7890  -42.3627 C.2       3 UNK         0.5005 
     28 O          22.6301  -27.8859  -41.9564 O.2       3 UNK        -0.5279 
     29 N          22.5109  -25.6445  -41.7173 N.am      4 UNK        -0.4463 
     30 CA         23.2044  -25.5308  -40.4270 C.3       4 UNK         0.0283 
     31 CB         23.1932  -24.0609  -39.9778 C.3       4 UNK        -0.1875 
     32 C          24.6423  -26.0847  -40.4194 C.2       4 UNK         0.4949 
     33 O          25.1280  -26.4897  -39.3632 O.2       4 UNK        -0.5039 
     34 N          25.2909  -26.1023  -41.5911 N.am      5 UNK        -0.4663 
     35 CA         26.6258  -26.6663  -41.7966 C.3       5 UNK         0.0242 
     36 CB         27.2333  -26.0473  -43.0666 C.3       5 UNK        -0.1982 
     37 C          26.6409  -28.2042  -41.8913 C.2       5 UNK         0.5017 
     38 O          27.7146  -28.7911  -41.7478 O.2       5 UNK        -0.5012 
     39 N          25.4856  -28.8352  -42.1494 N.am      6 UNK        -0.4439 
     40 CA         25.3560  -30.2847  -42.2783 C.3       6 UNK         0.0297 
     41 CB         24.2471  -30.6143  -43.2928 C.3       6 UNK        -0.2006 
     42 C          25.0608  -30.8867  -40.8994 C.2       6 UNK         0.4892 
     43 O          23.9407  -30.7497  -40.4022 O.2       6 UNK        -0.5089 
     44 N          26.0726  -31.5326  -40.3034 N.am      7 UNK        -0.4243 
     45 CA         25.9972  -32.2103  -39.0059 C.3       7 UNK         0.0196 
     46 CB         27.3769  -32.7889  -38.6503 C.3       7 UNK        -0.2007 
     47 C          24.9201  -33.3075  -39.0117 C.2       7 UNK         0.5020 
     48 O          25.0552  -34.2847  -39.7511 O.2       7 UNK        -0.5147 
     49 N          23.8446  -33.0825  -38.2428 N.am      8 UNK        -0.4734 
     50 CA         22.6216  -33.8971  -38.1716 C.3       8 UNK         0.0238 
     51 CB         22.9124  -35.2430  -37.4730 C.3       8 UNK        -0.1912 
     52 C          21.9165  -34.0772  -39.5352 C.2       8 UNK         0.5038 
     53 O          21.2737  -35.1058  -39.7537 O.2       8 UNK        -0.5046 
     54 N          22.0689  -33.0877  -40.4289 N.am      9 UNK        -0.4200 
     55 CA         21.6213  -33.1038  -41.8322 C.3       9 UNK         0.0839 
     56 C          22.3778  -34.1276  -42.7340 C.2       9 UNK         0.5513 
     57 N          23.5205  -34.6663  -42.3222 N.am      9 UNK        -0.7519 
     58 O          21.9443  -34.4136  -43.8469 O.2       9 UNK        -0.4960 
     59 C59        20.0745  -33.1795  -41.9873 C.3       10 UNK        -0.0876 
     60 S60        19.2389  -31.7529  -41.2135 S.3       10 UNK        -0.2414 
     61 C61        17.6453  -31.7470  -42.1046 C.3       10 UNK         0.0169 
     62 H62        12.9951  -22.1128  -45.9933 H         1 UNK         0.0903 
     63 H63        12.9742  -22.8656  -47.5905 H         1 UNK         0.0903 
     64 H64        12.2572  -23.7010  -46.2114 H         1 UNK         0.0903 
     65 H65        13.5618  -25.3444  -45.4245 H         1 UNK         0.3096 
     66 H66        16.3304  -25.6261  -46.1255 H         1 UNK         0.1121 
     67 H67        14.5422  -27.1949  -44.1851 H         1 UNK         0.0849 
     68 H68        16.2060  -27.6046  -44.5192 H         1 UNK         0.0849 
     69 H69        14.1442  -29.9582  -45.1293 H         1 UNK         0.0865 
     70 H70        14.7180  -30.4421  -46.7059 H         1 UNK         0.0865 
     71 H71        15.4874  -30.9959  -43.4957 H         1 UNK         0.1346 
     72 H72        19.7715  -30.9587  -43.7780 H         1 UNK         0.1412 
     73 H73        17.4074  -29.3566  -46.9593 H         1 UNK         0.1426 
     74 H74        19.8292  -29.9274  -47.2700 H         1 UNK         0.0716 
     75 H75        20.8179  -30.3878  -45.9084 H         1 UNK         0.0716 
     76 H76        20.6625  -28.7316  -43.6703 H         1 UNK         0.0695 
     77 H77        22.2025  -28.5696  -44.4816 H         1 UNK         0.0695 
     78 H78        22.0214  -26.0849  -44.3592 H         1 UNK         0.0983 
     79 H79        19.3319  -26.6129  -43.4157 H         1 UNK         0.3095 
     80 H80        18.1938  -24.5405  -42.1666 H         1 UNK         0.0454 
     81 H81        19.0183  -22.1941  -42.4430 H         1 UNK         0.0851 
     82 H82        18.7074  -22.2715  -44.1727 H         1 UNK         0.0851 
     83 H83        17.3716  -22.3401  -43.0255 H         1 UNK         0.0851 
     84 H84        18.1512  -25.1478  -44.9988 H         1 UNK         0.2976 
     85 H85        22.1472  -24.7881  -42.1265 H         1 UNK         0.3116 
     86 H86        22.6337  -26.1133  -39.7007 H         1 UNK         0.0646 
     87 H87        23.6755  -23.9453  -39.0060 H         1 UNK         0.0847 
     88 H88        22.1756  -23.6826  -39.8787 H         1 UNK         0.0847 
     89 H89        23.7234  -23.4196  -40.6829 H         1 UNK         0.0847 
     90 H90        24.8165  -25.7372  -42.4041 H         1 UNK         0.3040 
     91 H91        27.2557  -26.3897  -40.9479 H         1 UNK         0.1015 
     92 H92        26.6471  -26.2883  -43.9544 H         1 UNK         0.0786 
     93 H93        28.2461  -26.4164  -43.2354 H         1 UNK         0.0786 
     94 H94        27.2962  -24.9617  -42.9886 H         1 UNK         0.0786 
     95 H95        24.6160  -28.3102  -42.1404 H         1 UNK         0.3172 
     96 H96        26.2856  -30.7085  -42.6649 H         1 UNK         0.0595 
     97 H97        24.1682  -31.6914  -43.4419 H         1 UNK         0.0839 
     98 H98        23.2717  -30.2571  -42.9623 H         1 UNK         0.0839 
     99 H99        24.4537  -30.1677  -44.2654 H         1 UNK         0.0839 
    100 H100       26.9574  -31.5875  -40.7875 H         1 UNK         0.2998 
    101 H101       25.7399  -31.4605  -38.2548 H         1 UNK         0.0822 
    102 H102       27.3498  -33.2937  -37.6837 H         1 UNK         0.0787 
    103 H103       27.7126  -33.5182  -39.3890 H         1 UNK         0.0787 
    104 H104       28.1320  -32.0052  -38.5847 H         1 UNK         0.0787 
    105 H105       23.8199  -32.2226  -37.7105 H         1 UNK         0.3055 
    106 H106       21.9175  -33.3455  -37.5464 H         1 UNK         0.1106 
    107 H107       23.5606  -35.8795  -38.0763 H         1 UNK         0.0828 
    108 H108       23.3941  -35.0934  -36.5068 H         1 UNK         0.0828 
    109 H109       21.9916  -35.7982  -37.2901 H         1 UNK         0.0828 
    110 H110       22.6384  -32.2869  -40.1737 H         1 UNK         0.2931 
    111 H111       21.9242  -32.1346  -42.2275 H         1 UNK         0.0412 
    112 H112       23.9986  -35.3167  -42.9252 H         1 UNK         0.3472 
    113 H113       23.9066  -34.4552  -41.4082 H         1 UNK         0.3472 
    114 H114       19.6803  -34.1001  -41.5555 H         1 UNK         0.0970 
    115 H115       19.7967  -33.2077  -43.0419 H         1 UNK         0.0970 
    116 H116       16.9215  -31.2441  -41.4615 H         1 UNK         0.0612 
    117 H117       17.2941  -32.7741  -42.2139 H         1 UNK         0.0612 
@<TRIPOS>BOND
     1    1    2 1    
     2    1   62 1    
     3    1   63 1    
     4    1   64 1    
     5    2    3 2    
     6    2    4 am   BACKBONE|DICT|INTERRES
     7    4    5 1    
     8    4   65 1    
     9    5    6 1    
    10    5   25 1    
    11    5   66 1    
    12    6    7 1    
    13    6   67 1    
    14    6   68 1    
    15    7    8 1    
    16    8    9 1    
    17    8   69 1    
    18    8   70 1    
    19    9   10 ar   
    20    9   14 ar   
    21   10   11 ar   
    22   10   71 1    
    23   11   12 ar   
    24   11   61 1    
    25   12   13 ar   
    26   12   72 1    
    27   13   14 ar   
    28   13   15 1    
    29   14   73 1    
    30   15   16 1    
    31   15   74 1    
    32   15   75 1    
    33   16   17 1    
    34   17   18 1    
    35   17   76 1    
    36   17   77 1    
    37   18   19 1    
    38   18   27 1    
    39   18   78 1    
    40   19   20 am   BACKBONE|DICT|INTERRES
    41   19   79 1    
    42   20   21 2    
    43   20   22 1    
    44   22   23 1    
    45   22   24 1    
    46   22   80 1    
    47   23   81 1    
    48   23   82 1    
    49   23   83 1    
    50   24   25 am   BACKBONE|DICT|INTERRES
    51   24   84 1    
    52   25   26 2    
    53   27   28 2    
    54   27   29 am   BACKBONE|DICT|INTERRES
    55   29   30 1    
    56   29   85 1    
    57   30   31 1    
    58   30   32 1    
    59   30   86 1    
    60   31   87 1    
    61   31   88 1    
    62   31   89 1    
    63   32   33 2    
    64   32   34 am   BACKBONE|DICT|INTERRES
    65   34   35 1    
    66   34   90 1    
    67   35   36 1    
    68   35   37 1    
    69   35   91 1    
    70   36   92 1    
    71   36   93 1    
    72   36   94 1    
    73   37   38 2    
    74   37   39 am   BACKBONE|DICT|INTERRES
    75   39   40 1    
    76   39   95 1    
    77   40   41 1    
    78   40   42 1    
    79   40   96 1    
    80   41   97 1    
    81   41   98 1    
    82   41   99 1    
    83   42   43 2    
    84   42   44 am   BACKBONE|DICT|INTERRES
    85   44   45 1    
    86   44  100 1    
    87   45   46 1    
    88   45   47 1    
    89   45  101 1    
    90   46  102 1    
    91   46  103 1    
    92   46  104 1    
    93   47   48 2    
    94   47   49 am   BACKBONE|DICT|INTERRES
    95   49   50 1    
    96   49  105 1    
    97   50   51 1    
    98   50   52 1    
    99   50  106 1    
   100   51  107 1    
   101   51  108 1    
   102   51  109 1    
   103   52   53 2    
   104   52   54 am   BACKBONE|DICT|INTERRES
   105   54   55 1    
   106   54  110 1    
   107   55   56 1    
   108   55   59 1    
   109   55  111 1    
   110   56   57 am   BACKBONE|DICT|INTERRES
   111   56   58 2    
   112   57  112 1    
   113   57  113 1    
   114   59   60 1    
   115   59  114 1    
   116   59  115 1    
   117   60   61 1    
   118   61  116 1    
   119   61  117 1    
@<TRIPOS>SUBSTRUCTURE
     1 UNK         1 GROUP             0       ****    0 ROOT    
