@<TRIPOS>MOLECULE
3R8
117   119    1
SMALL
USER_CHARGES


@<TRIPOS>ATOM
      1 CA         14.0348  -24.1832  -46.2135 C.3       0 UNK        -0.2013 
      2 C          15.0772  -25.2023  -45.7799 C.2       0 UNK         0.4866 
      3 O          16.2205  -25.1412  -46.2340 O.2       0 UNK        -0.5176 
      4 N          14.6983  -26.1360  -44.8976 N.am      1 UNK        -0.4884 
      5 CA         15.5536  -27.2015  -44.3596 C.3       1 UNK         0.0853 
      6 C6         14.7127  -28.4105  -43.8659 C.3       10 UNK        -0.0849 
      7 S7         14.2491  -29.4840  -45.2658 S.3       10 UNK        -0.2776 
      8 C8         15.5199  -30.7925  -45.1556 C.3       10 UNK         0.0316 
      9 C9         16.9364  -30.2277  -45.1573 C.ar      10 UNK        -0.0863 
     10 C10        17.6689  -30.1603  -43.9669 C.ar      10 UNK        -0.1009 
     11 C11        18.9532  -29.6113  -43.9559 C.ar      10 UNK        -0.0712 
     12 C12        19.5164  -29.1523  -45.1490 C.ar      10 UNK        -0.0894 
     13 C13        18.7936  -29.2034  -46.3444 C.ar      10 UNK        -0.0745 
     14 C14        17.5047  -29.7483  -46.3423 C.ar      10 UNK        -0.0972 
     15 C15        19.4041  -28.6848  -47.6403 C.3       10 UNK         0.0209 
     16 S16        19.4395  -26.8614  -47.7107 S.3       10 UNK        -0.2568 
     17 C17        21.0739  -26.4815  -46.9863 C.3       10 UNK        -0.0983 
     18 CA         21.0417  -25.3876  -45.8865 C.3       3 UNK         0.0876 
     19 N          20.0189  -25.6407  -44.8598 N.am      3 UNK        -0.4424 
     20 C          19.6724  -24.7787  -43.8911 C.2       2 UNK         0.4918 
     21 O          20.1902  -23.6704  -43.7473 O.2       2 UNK        -0.4875 
     22 CA         18.5391  -25.2215  -42.9520 C.3       2 UNK         0.0481 
     23 CB         18.0006  -24.0758  -42.0701 C.3       2 UNK        -0.1831 
     24 N          17.4596  -25.8113  -43.7381 N.am      2 UNK        -0.4498 
     25 C          16.5311  -26.6630  -43.2930 C.2       1 UNK         0.5027 
     26 O          16.4300  -27.0118  -42.1153 O.2       1 UNK        -0.4969 
     27 C          22.4543  -25.2148  -45.2844 C.2       3 UNK         0.5005 
     28 O          23.2351  -24.3931  -45.7673 O.2       3 UNK        -0.5279 
     29 N          22.7392  -25.9978  -44.2394 N.am      4 UNK        -0.4463 
     30 CA         23.9619  -26.0580  -43.4468 C.3       4 UNK         0.0283 
     31 CB         25.1204  -26.6437  -44.2799 C.3       4 UNK        -0.1875 
     32 C          23.6485  -26.9526  -42.2392 C.2       4 UNK         0.4949 
     33 O          22.5901  -27.5843  -42.2159 O.2       4 UNK        -0.5039 
     34 N          24.5651  -27.0221  -41.2658 N.am      5 UNK        -0.4663 
     35 CA         24.4493  -27.9430  -40.1262 C.3       5 UNK         0.0242 
     36 CB         25.4551  -27.5451  -39.0344 C.3       5 UNK        -0.1982 
     37 C          24.6482  -29.4154  -40.5307 C.2       5 UNK         0.5017 
     38 O          24.0451  -30.3024  -39.9221 O.2       5 UNK        -0.5012 
     39 N          25.5158  -29.6408  -41.5321 N.am      6 UNK        -0.4439 
     40 CA         25.8494  -30.9189  -42.1824 C.3       6 UNK         0.0297 
     41 CB         24.6256  -31.4378  -42.9663 C.3       6 UNK        -0.2006 
     42 C          26.4190  -32.0096  -41.2485 C.2       6 UNK         0.4892 
     43 O          26.5315  -33.1606  -41.6726 O.2       6 UNK        -0.5089 
     44 N          26.7337  -31.6399  -39.9965 N.am      7 UNK        -0.4243 
     45 CA         27.0267  -32.5113  -38.8521 C.3       7 UNK         0.0196 
     46 CB         28.3839  -33.2233  -39.0371 C.3       7 UNK        -0.2007 
     47 C          25.8726  -33.4885  -38.5327 C.2       7 UNK         0.5020 
     48 O          26.1275  -34.5853  -38.0316 O.2       7 UNK        -0.5147 
     49 N          24.6280  -33.0914  -38.8386 N.am      8 UNK        -0.4734 
     50 CA         23.4471  -33.9450  -38.7380 C.3       8 UNK         0.0238 
     51 CB         23.3654  -34.8926  -39.9549 C.3       8 UNK        -0.1912 
     52 C          22.1803  -33.1017  -38.5573 C.2       8 UNK         0.5038 
     53 O          21.6967  -32.9814  -37.4309 O.2       8 UNK        -0.5046 
     54 N          21.6450  -32.5726  -39.6655 N.am      9 UNK        -0.4200 
     55 CA         20.3481  -31.8792  -39.7207 C.3       9 UNK         0.0839 
     56 C          20.2966  -30.4785  -39.0439 C.2       9 UNK         0.5513 
     57 N          21.4202  -29.8319  -38.7629 N.am      9 UNK        -0.7519 
     58 O          19.2119  -29.9811  -38.7531 O.2       9 UNK        -0.4960 
     59 C59        19.7681  -31.8703  -41.1604 C.3       10 UNK        -0.0876 
     60 S60        20.7851  -30.9286  -42.3512 S.3       10 UNK        -0.2414 
     61 C61        19.7285  -29.4784  -42.6559 C.3       10 UNK         0.0169 
     62 H62        13.8936  -24.2285  -47.2930 H         1 UNK         0.0903 
     63 H63        13.0700  -24.3577  -45.7377 H         1 UNK         0.0903 
     64 H64        14.3640  -23.1771  -45.9549 H         1 UNK         0.0903 
     65 H65        13.7506  -26.1241  -44.5476 H         1 UNK         0.3096 
     66 H66        16.1948  -27.5492  -45.1722 H         1 UNK         0.1121 
     67 H67        13.8102  -28.0758  -43.3519 H         1 UNK         0.0849 
     68 H68        15.2490  -29.0195  -43.1369 H         1 UNK         0.0849 
     69 H69        15.4000  -31.4760  -45.9974 H         1 UNK         0.0865 
     70 H70        15.3445  -31.3865  -44.2572 H         1 UNK         0.0865 
     71 H71        17.2338  -30.5163  -43.0432 H         1 UNK         0.1346 
     72 H72        20.5190  -28.7510  -45.1378 H         1 UNK         0.1412 
     73 H73        16.9346  -29.7896  -47.2608 H         1 UNK         0.1426 
     74 H74        18.8270  -29.0445  -48.4935 H         1 UNK         0.0716 
     75 H75        20.4080  -29.0910  -47.7710 H         1 UNK         0.0716 
     76 H76        21.7222  -26.1608  -47.8041 H         1 UNK         0.0695 
     77 H77        21.5245  -27.3976  -46.6034 H         1 UNK         0.0695 
     78 H78        20.7810  -24.4408  -46.3649 H         1 UNK         0.0983 
     79 H79        19.5166  -26.5128  -44.9394 H         1 UNK         0.3095 
     80 H80        18.9582  -25.9921  -42.3016 H         1 UNK         0.0454 
     81 H81        17.5673  -23.2769  -42.6727 H         1 UNK         0.0851 
     82 H82        18.7965  -23.6374  -41.4668 H         1 UNK         0.0851 
     83 H83        17.2344  -24.4272  -41.3793 H         1 UNK         0.0851 
     84 H84        17.4014  -25.5267  -44.7141 H         1 UNK         0.2976 
     85 H85        22.0251  -26.6220  -43.8801 H         1 UNK         0.3116 
     86 H86        24.2123  -25.0555  -43.0951 H         1 UNK         0.0646 
     87 H87        26.0408  -26.6950  -43.6977 H         1 UNK         0.0847 
     88 H88        25.3358  -26.0317  -45.1556 H         1 UNK         0.0847 
     89 H89        24.8954  -27.6532  -44.6266 H         1 UNK         0.0847 
     90 H90        25.3996  -26.4552  -41.3250 H         1 UNK         0.3040 
     91 H91        23.4424  -27.8532  -39.7119 H         1 UNK         0.1015 
     92 H92        25.2736  -26.5300  -38.6807 H         1 UNK         0.0786 
     93 H93        25.3732  -28.2056  -38.1697 H         1 UNK         0.0786 
     94 H94        26.4851  -27.5977  -39.3895 H         1 UNK         0.0786 
     95 H95        25.9744  -28.8300  -41.9226 H         1 UNK         0.3172 
     96 H96        26.6375  -30.6964  -42.9031 H         1 UNK         0.0595 
     97 H97        23.8224  -31.7479  -42.2974 H         1 UNK         0.0839 
     98 H98        24.8860  -32.2997  -43.5819 H         1 UNK         0.0839 
     99 H99        24.2259  -30.6739  -43.6334 H         1 UNK         0.0839 
    100 H100       26.5980  -30.6651  -39.7706 H         1 UNK         0.2998 
    101 H101       27.1129  -31.8564  -37.9837 H         1 UNK         0.0822 
    102 H102       29.1786  -32.5113  -39.2597 H         1 UNK         0.0787 
    103 H103       28.6733  -33.7564  -38.1307 H         1 UNK         0.0787 
    104 H104       28.3511  -33.9537  -39.8462 H         1 UNK         0.0787 
    105 H105       24.4799  -32.1549  -39.2065 H         1 UNK         0.3055 
    106 H106       23.5325  -34.5611  -37.8395 H         1 UNK         0.1106 
    107 H107       22.4315  -35.4565  -39.9544 H         1 UNK         0.0828 
    108 H108       24.1773  -35.6199  -39.9400 H         1 UNK         0.0828 
    109 H109       23.4287  -34.3538  -40.9009 H         1 UNK         0.0828 
    110 H110       22.1304  -32.6685  -40.5444 H         1 UNK         0.2931 
    111 H111       19.6629  -32.4935  -39.1326 H         1 UNK         0.0412 
    112 H112       22.3148  -30.2030  -39.0649 H         1 UNK         0.3472 
    113 H113       21.3702  -28.9344  -38.3099 H         1 UNK         0.3472 
    114 H114       19.6909  -32.8946  -41.5279 H         1 UNK         0.0970 
    115 H115       18.7437  -31.4945  -41.1555 H         1 UNK         0.0970 
    116 H116       20.3544  -28.5896  -42.7045 H         1 UNK         0.0612 
    117 H117       19.0501  -29.3077  -41.8187 H         1 UNK         0.0612 
@<TRIPOS>BOND
     1    1    2 1    
     2    1   62 1    
     3    1   63 1    
     4    1   64 1    
     5    2    3 2    
     6    2    4 am   BACKBONE|DICT|INTERRES
     7    4    5 1    
     8    4   65 1    
     9    5    6 1    
    10    5   25 1    
    11    5   66 1    
    12    6    7 1    
    13    6   67 1    
    14    6   68 1    
    15    7    8 1    
    16    8    9 1    
    17    8   69 1    
    18    8   70 1    
    19    9   10 ar   
    20    9   14 ar   
    21   10   11 ar   
    22   10   71 1    
    23   11   12 ar   
    24   11   61 1    
    25   12   13 ar   
    26   12   72 1    
    27   13   14 ar   
    28   13   15 1    
    29   14   73 1    
    30   15   16 1    
    31   15   74 1    
    32   15   75 1    
    33   16   17 1    
    34   17   18 1    
    35   17   76 1    
    36   17   77 1    
    37   18   19 1    
    38   18   27 1    
    39   18   78 1    
    40   19   20 am   BACKBONE|DICT|INTERRES
    41   19   79 1    
    42   20   21 2    
    43   20   22 1    
    44   22   23 1    
    45   22   24 1    
    46   22   80 1    
    47   23   81 1    
    48   23   82 1    
    49   23   83 1    
    50   24   25 am   BACKBONE|DICT|INTERRES
    51   24   84 1    
    52   25   26 2    
    53   27   28 2    
    54   27   29 am   BACKBONE|DICT|INTERRES
    55   29   30 1    
    56   29   85 1    
    57   30   31 1    
    58   30   32 1    
    59   30   86 1    
    60   31   87 1    
    61   31   88 1    
    62   31   89 1    
    63   32   33 2    
    64   32   34 am   BACKBONE|DICT|INTERRES
    65   34   35 1    
    66   34   90 1    
    67   35   36 1    
    68   35   37 1    
    69   35   91 1    
    70   36   92 1    
    71   36   93 1    
    72   36   94 1    
    73   37   38 2    
    74   37   39 am   BACKBONE|DICT|INTERRES
    75   39   40 1    
    76   39   95 1    
    77   40   41 1    
    78   40   42 1    
    79   40   96 1    
    80   41   97 1    
    81   41   98 1    
    82   41   99 1    
    83   42   43 2    
    84   42   44 am   BACKBONE|DICT|INTERRES
    85   44   45 1    
    86   44  100 1    
    87   45   46 1    
    88   45   47 1    
    89   45  101 1    
    90   46  102 1    
    91   46  103 1    
    92   46  104 1    
    93   47   48 2    
    94   47   49 am   BACKBONE|DICT|INTERRES
    95   49   50 1    
    96   49  105 1    
    97   50   51 1    
    98   50   52 1    
    99   50  106 1    
   100   51  107 1    
   101   51  108 1    
   102   51  109 1    
   103   52   53 2    
   104   52   54 am   BACKBONE|DICT|INTERRES
   105   54   55 1    
   106   54  110 1    
   107   55   56 1    
   108   55   59 1    
   109   55  111 1    
   110   56   57 am   BACKBONE|DICT|INTERRES
   111   56   58 2    
   112   57  112 1    
   113   57  113 1    
   114   59   60 1    
   115   59  114 1    
   116   59  115 1    
   117   60   61 1    
   118   61  116 1    
   119   61  117 1    
@<TRIPOS>SUBSTRUCTURE
     1 UNK         1 GROUP             0       ****    0 ROOT    
