@<TRIPOS>MOLECULE
3R8
117   119    1
SMALL
USER_CHARGES


@<TRIPOS>ATOM
      1 CA         13.8392  -30.3008  -45.9624 C.3       0 UNK        -0.2013 
      2 C          14.3630  -30.9747  -44.6976 C.2       0 UNK         0.4866 
      3 O          13.7398  -31.9310  -44.2394 O.2       0 UNK        -0.5176 
      4 N          15.4721  -30.5409  -44.0807 N.am      1 UNK        -0.4884 
      5 CA         16.4345  -29.4848  -44.4330 C.3       1 UNK         0.0853 
      6 C6         15.8343  -28.0820  -44.7229 C.3       10 UNK        -0.0849 
      7 S7         14.8673  -27.4778  -43.2952 S.3       10 UNK        -0.2776 
      8 C8         15.5215  -25.7967  -43.0309 C.3       10 UNK         0.0316 
      9 C9         17.0234  -25.7593  -42.7706 C.ar      10 UNK        -0.0863 
     10 C10        17.5769  -26.4028  -41.6577 C.ar      10 UNK        -0.1009 
     11 C11        18.9523  -26.3304  -41.4114 C.ar      10 UNK        -0.0712 
     12 C12        19.7695  -25.5910  -42.2695 C.ar      10 UNK        -0.0894 
     13 C13        19.2340  -24.9722  -43.3997 C.ar      10 UNK        -0.0745 
     14 C14        17.8600  -25.0536  -43.6412 C.ar      10 UNK        -0.0972 
     15 C15        20.1333  -24.2262  -44.3713 C.3       10 UNK         0.0209 
     16 S16        20.5295  -25.2710  -45.8074 S.3       10 UNK        -0.2568 
     17 C17        22.1508  -25.9869  -45.3605 C.3       10 UNK        -0.0983 
     18 CA         22.1057  -27.2722  -44.4800 C.3       3 UNK         0.0876 
     19 N          21.1055  -28.2708  -44.8854 N.am      3 UNK        -0.4424 
     20 C          20.9763  -28.8441  -46.0922 C.2       2 UNK         0.4918 
     21 O          21.7381  -28.6452  -47.0376 O.2       2 UNK        -0.4875 
     22 CA         19.8031  -29.8172  -46.2710 C.3       2 UNK         0.0481 
     23 CB         20.2691  -31.2578  -45.9733 C.3       2 UNK        -0.1831 
     24 N          18.6643  -29.4431  -45.4250 N.am      2 UNK        -0.4498 
     25 C          17.4329  -29.9609  -45.5071 C.2       1 UNK         0.5027 
     26 O          17.0946  -30.7844  -46.3602 O.2       1 UNK        -0.4969 
     27 C          23.5213  -27.8570  -44.2702 C.2       3 UNK         0.5005 
     28 O          24.4443  -27.0901  -43.9898 O.2       3 UNK        -0.5279 
     29 N          23.6807  -29.1854  -44.3785 N.am      4 UNK        -0.4463 
     30 CA         24.9396  -29.9216  -44.2339 C.3       4 UNK         0.0283 
     31 CB         24.6858  -31.4113  -44.5085 C.3       4 UNK        -0.1875 
     32 C          25.5827  -29.6945  -42.8556 C.2       4 UNK         0.4949 
     33 O          25.0503  -30.1587  -41.8440 O.2       4 UNK        -0.5039 
     34 N          26.6623  -28.8973  -42.8459 N.am      5 UNK        -0.4663 
     35 CA         27.3844  -28.3725  -41.6750 C.3       5 UNK         0.0242 
     36 CB         28.0973  -29.5219  -40.9305 C.3       5 UNK        -0.1982 
     37 C          26.5124  -27.5248  -40.7205 C.2       5 UNK         0.5017 
     38 O          26.9167  -27.2986  -39.5792 O.2       5 UNK        -0.5012 
     39 N          25.3215  -27.1103  -41.1867 N.am      6 UNK        -0.4439 
     40 CA         24.2028  -26.5479  -40.4199 C.3       6 UNK         0.0297 
     41 CB         24.5132  -25.0968  -39.9992 C.3       6 UNK        -0.2006 
     42 C          23.7652  -27.4381  -39.2330 C.2       6 UNK         0.4892 
     43 O          23.3203  -26.9092  -38.2124 O.2       6 UNK        -0.5089 
     44 N          23.9205  -28.7635  -39.3750 N.am      7 UNK        -0.4243 
     45 CA         23.7089  -29.7396  -38.3060 C.3       7 UNK         0.0196 
     46 CB         25.0579  -30.0958  -37.6579 C.3       7 UNK        -0.2007 
     47 C          22.9953  -30.9967  -38.8107 C.2       7 UNK         0.5020 
     48 O          22.0346  -31.4357  -38.1776 O.2       7 UNK        -0.5147 
     49 N          23.4379  -31.5537  -39.9465 N.am      8 UNK        -0.4734 
     50 CA         22.8536  -32.7470  -40.5680 C.3       8 UNK         0.0238 
     51 CB         23.9607  -33.5332  -41.2941 C.3       8 UNK        -0.1912 
     52 C          21.6690  -32.3666  -41.4755 C.2       8 UNK         0.5038 
     53 O          21.6556  -32.6935  -42.6629 O.2       8 UNK        -0.5046 
     54 N          20.7073  -31.6498  -40.8869 N.am      9 UNK        -0.4200 
     55 CA         19.5162  -31.0909  -41.5409 C.3       9 UNK         0.0839 
     56 C          18.3214  -32.0838  -41.6374 C.2       9 UNK         0.5513 
     57 N          18.4341  -33.3187  -41.1643 N.am      9 UNK        -0.7519 
     58 O          17.2678  -31.7257  -42.1544 O.2       9 UNK        -0.4960 
     59 C59        19.0914  -29.7534  -40.8765 C.3       10 UNK        -0.0876 
     60 S60        20.4591  -28.5470  -40.7832 S.3       10 UNK        -0.2414 
     61 C61        19.5766  -27.0554  -40.2312 C.3       10 UNK         0.0169 
     62 H62        13.2816  -29.4004  -45.7071 H         1 UNK         0.0903 
     63 H63        14.6374  -30.0425  -46.6549 H         1 UNK         0.0903 
     64 H64        13.1612  -30.9699  -46.4917 H         1 UNK         0.0903 
     65 H65        15.7864  -31.0775  -43.2768 H         1 UNK         0.3096 
     66 H66        17.0270  -29.3746  -43.5237 H         1 UNK         0.1121 
     67 H67        15.2090  -28.0688  -45.6133 H         1 UNK         0.0849 
     68 H68        16.6352  -27.3728  -44.9354 H         1 UNK         0.0849 
     69 H69        15.2606  -25.1825  -43.8944 H         1 UNK         0.0865 
     70 H70        15.0069  -25.3515  -42.1783 H         1 UNK         0.0865 
     71 H71        16.9362  -26.9614  -40.9889 H         1 UNK         0.1346 
     72 H72        20.8283  -25.5179  -42.0650 H         1 UNK         0.1412 
     73 H73        17.4451  -24.5649  -44.5125 H         1 UNK         0.1426 
     74 H74        21.0456  -23.8848  -43.8801 H         1 UNK         0.0716 
     75 H75        19.6229  -23.3278  -44.7214 H         1 UNK         0.0716 
     76 H76        22.7460  -25.2132  -44.8721 H         1 UNK         0.0695 
     77 H77        22.6667  -26.1996  -46.2985 H         1 UNK         0.0695 
     78 H78        21.8010  -26.9662  -43.4818 H         1 UNK         0.0983 
     79 H79        20.4821  -28.5549  -44.1459 H         1 UNK         0.3095 
     80 H80        19.4871  -29.7565  -47.3145 H         1 UNK         0.0454 
     81 H81        20.5334  -31.3908  -44.9239 H         1 UNK         0.0851 
     82 H82        21.1485  -31.5152  -46.5654 H         1 UNK         0.0851 
     83 H83        19.5000  -31.9902  -46.2172 H         1 UNK         0.0851 
     84 H84        18.8245  -28.6864  -44.7763 H         1 UNK         0.2976 
     85 H85        22.8631  -29.7384  -44.5853 H         1 UNK         0.3116 
     86 H86        25.6259  -29.5570  -45.0011 H         1 UNK         0.0646 
     87 H87        24.4232  -31.5805  -45.5529 H         1 UNK         0.0847 
     88 H88        25.5728  -32.0099  -44.2969 H         1 UNK         0.0847 
     89 H89        23.8713  -31.7988  -43.8981 H         1 UNK         0.0847 
     90 H90        26.9731  -28.5295  -43.7356 H         1 UNK         0.3040 
     91 H91        28.1501  -27.6970  -42.0598 H         1 UNK         0.1015 
     92 H92        27.3867  -30.2002  -40.4572 H         1 UNK         0.0786 
     93 H93        28.7503  -29.1379  -40.1458 H         1 UNK         0.0786 
     94 H94        28.7194  -30.1074  -41.6074 H         1 UNK         0.0786 
     95 H95        25.1231  -27.2889  -42.1684 H         1 UNK         0.3172 
     96 H96        23.3519  -26.5198  -41.1022 H         1 UNK         0.0595 
     97 H97        25.3257  -25.0532  -39.2732 H         1 UNK         0.0839 
     98 H98        23.6421  -24.6253  -39.5424 H         1 UNK         0.0839 
     99 H99        24.7962  -24.4871  -40.8572 H         1 UNK         0.0839 
    100 H100       24.2693  -29.1217  -40.2580 H         1 UNK         0.2998 
    101 H101       23.0657  -29.3087  -37.5354 H         1 UNK         0.0822 
    102 H102       24.9291  -30.8302  -36.8616 H         1 UNK         0.0787 
    103 H103       25.7560  -30.5154  -38.3834 H         1 UNK         0.0787 
    104 H104       25.5271  -29.2162  -37.2166 H         1 UNK         0.0787 
    105 H105       24.1775  -31.0997  -40.4775 H         1 UNK         0.3055 
    106 H106       22.4521  -33.4031  -39.7921 H         1 UNK         0.1106 
    107 H107       23.5535  -34.3965  -41.8221 H         1 UNK         0.0828 
    108 H108       24.4870  -32.9182  -42.0215 H         1 UNK         0.0828 
    109 H109       24.7003  -33.9086  -40.5870 H         1 UNK         0.0828 
    110 H110       20.8209  -31.4317  -39.9041 H         1 UNK         0.2931 
    111 H111       19.7846  -30.8600  -42.5733 H         1 UNK         0.0412 
    112 H112       17.6495  -33.9472  -41.2368 H         1 UNK         0.3472 
    113 H113       19.2929  -33.6284  -40.7393 H         1 UNK         0.3472 
    114 H114       18.2670  -29.2981  -41.4268 H         1 UNK         0.0970 
    115 H115       18.7216  -29.9315  -39.8650 H         1 UNK         0.0970 
    116 H116       18.8247  -27.3199  -39.4861 H         1 UNK         0.0612 
    117 H117       20.2857  -26.3932  -39.7318 H         1 UNK         0.0612 
@<TRIPOS>BOND
     1    1    2 1    
     2    1   62 1    
     3    1   63 1    
     4    1   64 1    
     5    2    3 2    
     6    2    4 am   BACKBONE|DICT|INTERRES
     7    4    5 1    
     8    4   65 1    
     9    5    6 1    
    10    5   25 1    
    11    5   66 1    
    12    6    7 1    
    13    6   67 1    
    14    6   68 1    
    15    7    8 1    
    16    8    9 1    
    17    8   69 1    
    18    8   70 1    
    19    9   10 ar   
    20    9   14 ar   
    21   10   11 ar   
    22   10   71 1    
    23   11   12 ar   
    24   11   61 1    
    25   12   13 ar   
    26   12   72 1    
    27   13   14 ar   
    28   13   15 1    
    29   14   73 1    
    30   15   16 1    
    31   15   74 1    
    32   15   75 1    
    33   16   17 1    
    34   17   18 1    
    35   17   76 1    
    36   17   77 1    
    37   18   19 1    
    38   18   27 1    
    39   18   78 1    
    40   19   20 am   BACKBONE|DICT|INTERRES
    41   19   79 1    
    42   20   21 2    
    43   20   22 1    
    44   22   23 1    
    45   22   24 1    
    46   22   80 1    
    47   23   81 1    
    48   23   82 1    
    49   23   83 1    
    50   24   25 am   BACKBONE|DICT|INTERRES
    51   24   84 1    
    52   25   26 2    
    53   27   28 2    
    54   27   29 am   BACKBONE|DICT|INTERRES
    55   29   30 1    
    56   29   85 1    
    57   30   31 1    
    58   30   32 1    
    59   30   86 1    
    60   31   87 1    
    61   31   88 1    
    62   31   89 1    
    63   32   33 2    
    64   32   34 am   BACKBONE|DICT|INTERRES
    65   34   35 1    
    66   34   90 1    
    67   35   36 1    
    68   35   37 1    
    69   35   91 1    
    70   36   92 1    
    71   36   93 1    
    72   36   94 1    
    73   37   38 2    
    74   37   39 am   BACKBONE|DICT|INTERRES
    75   39   40 1    
    76   39   95 1    
    77   40   41 1    
    78   40   42 1    
    79   40   96 1    
    80   41   97 1    
    81   41   98 1    
    82   41   99 1    
    83   42   43 2    
    84   42   44 am   BACKBONE|DICT|INTERRES
    85   44   45 1    
    86   44  100 1    
    87   45   46 1    
    88   45   47 1    
    89   45  101 1    
    90   46  102 1    
    91   46  103 1    
    92   46  104 1    
    93   47   48 2    
    94   47   49 am   BACKBONE|DICT|INTERRES
    95   49   50 1    
    96   49  105 1    
    97   50   51 1    
    98   50   52 1    
    99   50  106 1    
   100   51  107 1    
   101   51  108 1    
   102   51  109 1    
   103   52   53 2    
   104   52   54 am   BACKBONE|DICT|INTERRES
   105   54   55 1    
   106   54  110 1    
   107   55   56 1    
   108   55   59 1    
   109   55  111 1    
   110   56   57 am   BACKBONE|DICT|INTERRES
   111   56   58 2    
   112   57  112 1    
   113   57  113 1    
   114   59   60 1    
   115   59  114 1    
   116   59  115 1    
   117   60   61 1    
   118   61  116 1    
   119   61  117 1    
@<TRIPOS>SUBSTRUCTURE
     1 UNK         1 GROUP             0       ****    0 ROOT    
