@<TRIPOS>MOLECULE
3R8
117   119    1
SMALL
USER_CHARGES


@<TRIPOS>ATOM
      1 CA         15.4184  -23.4152  -41.1077 C.3       0 UNK        -0.2013 
      2 C          15.9487  -24.0840  -42.3673 C.2       0 UNK         0.4866 
      3 O          15.6507  -23.6310  -43.4731 O.2       0 UNK        -0.5176 
      4 N          16.7238  -25.1641  -42.2098 N.am      1 UNK        -0.4884 
      5 CA         17.3577  -25.9070  -43.3040 C.3       1 UNK         0.0853 
      6 C6         17.9102  -27.2723  -42.8259 C.3       10 UNK        -0.0849 
      7 S7         16.5956  -28.3980  -42.2526 S.3       10 UNK        -0.2776 
      8 C8         16.2244  -29.3364  -43.7690 C.3       10 UNK         0.0316 
      9 C9         17.2226  -30.4587  -44.0276 C.ar      10 UNK        -0.0863 
     10 C10        17.0376  -31.7072  -43.4275 C.ar      10 UNK        -0.1009 
     11 C11        17.8854  -32.7782  -43.7246 C.ar      10 UNK        -0.0712 
     12 C12        18.9483  -32.5748  -44.6143 C.ar      10 UNK        -0.0894 
     13 C13        19.1644  -31.3271  -45.2121 C.ar      10 UNK        -0.0745 
     14 C14        18.2845  -30.2760  -44.9187 C.ar      10 UNK        -0.0972 
     15 C15        20.3254  -31.1898  -46.2032 C.3       10 UNK         0.0209 
     16 S16        20.7872  -29.4856  -46.6815 S.3       10 UNK        -0.2568 
     17 C17        21.7113  -28.9465  -45.2073 C.3       10 UNK        -0.0983 
     18 CA         22.1772  -27.4686  -45.2891 C.3       3 UNK         0.0876 
     19 N          21.0343  -26.5629  -45.4466 N.am      3 UNK        -0.4424 
     20 C          21.0564  -25.3128  -45.9271 C.2       2 UNK         0.4918 
     21 O          22.0883  -24.7328  -46.2672 O.2       2 UNK        -0.4875 
     22 CA         19.7043  -24.5857  -46.0620 C.3       2 UNK         0.0481 
     23 CB         19.2798  -24.5259  -47.5382 C.3       2 UNK        -0.1831 
     24 N          18.6284  -25.2053  -45.2794 N.am      2 UNK        -0.4498 
     25 C          18.4901  -25.0846  -43.9514 C.2       1 UNK         0.5027 
     26 O          19.2392  -24.4086  -43.2424 O.2       1 UNK        -0.4969 
     27 C          23.0734  -27.0735  -44.0903 C.2       3 UNK         0.5005 
     28 O          23.2893  -27.8873  -43.1910 O.2       3 UNK        -0.5279 
     29 N          23.5855  -25.8333  -44.0994 N.am      4 UNK        -0.4463 
     30 CA         24.4737  -25.2212  -43.1043 C.3       4 UNK         0.0283 
     31 CB         25.8888  -25.8380  -43.1943 C.3       4 UNK        -0.1875 
     32 C          23.8670  -25.2601  -41.6876 C.2       4 UNK         0.4949 
     33 O          23.0020  -24.4392  -41.3810 O.2       4 UNK        -0.5039 
     34 N          24.3160  -26.2165  -40.8686 N.am      5 UNK        -0.4663 
     35 CA         23.7636  -26.5309  -39.5547 C.3       5 UNK         0.0242 
     36 CB         24.4117  -25.6581  -38.4637 C.3       5 UNK        -0.1982 
     37 C          23.9362  -28.0272  -39.2758 C.2       5 UNK         0.5017 
     38 O          22.9450  -28.7203  -39.0538 O.2       5 UNK        -0.5012 
     39 N          25.1892  -28.5056  -39.3142 N.am      6 UNK        -0.4439 
     40 CA         25.5464  -29.9031  -39.0450 C.3       6 UNK         0.0297 
     41 CB         27.0643  -30.0110  -38.8269 C.3       6 UNK        -0.2006 
     42 C          25.0914  -30.8799  -40.1433 C.2       6 UNK         0.4892 
     43 O          24.7011  -32.0047  -39.8275 O.2       6 UNK        -0.5089 
     44 N          25.1414  -30.4358  -41.4078 N.am      7 UNK        -0.4243 
     45 CA         24.7568  -31.2284  -42.5801 C.3       7 UNK         0.0196 
     46 CB         25.3656  -30.6059  -43.8479 C.3       7 UNK        -0.2007 
     47 C          23.2369  -31.4251  -42.7253 C.2       7 UNK         0.5020 
     48 O          22.8197  -32.3032  -43.4811 O.2       7 UNK        -0.5147 
     49 N          22.4302  -30.6533  -41.9840 N.am      8 UNK        -0.4734 
     50 CA         20.9693  -30.7478  -41.9185 C.3       8 UNK         0.0238 
     51 CB         20.4049  -29.4103  -41.4098 C.3       8 UNK        -0.1912 
     52 C          20.4894  -31.9468  -41.0772 C.2       8 UNK         0.5038 
     53 O          19.6709  -31.7773  -40.1711 O.2       8 UNK        -0.5046 
     54 N          21.0210  -33.1351  -41.3883 N.am      9 UNK        -0.4200 
     55 CA         20.7361  -34.4204  -40.7353 C.3       9 UNK         0.0839 
     56 C          21.1366  -34.4773  -39.2287 C.2       9 UNK         0.5513 
     57 N          22.1385  -33.7243  -38.7885 N.am      9 UNK        -0.7519 
     58 O          20.5577  -35.2308  -38.4497 O.2       9 UNK        -0.4960 
     59 C59        19.2880  -34.9128  -41.0150 C.3       10 UNK        -0.0876 
     60 S60        19.0005  -35.2177  -42.7932 S.3       10 UNK        -0.2414 
     61 C61        17.5571  -34.1623  -43.1627 C.3       10 UNK         0.0169 
     62 H62        15.7472  -23.9282  -40.2040 H         1 UNK         0.0903 
     63 H63        15.7650  -22.3834  -41.0570 H         1 UNK         0.0903 
     64 H64        14.3288  -23.4091  -41.1163 H         1 UNK         0.0903 
     65 H65        16.9410  -25.4907  -41.2791 H         1 UNK         0.3096 
     66 H66        16.5938  -26.0881  -44.0639 H         1 UNK         0.1121 
     67 H67        18.4806  -27.7683  -43.6114 H         1 UNK         0.0849 
     68 H68        18.6104  -27.1225  -42.0019 H         1 UNK         0.0849 
     69 H69        15.2233  -29.7603  -43.6753 H         1 UNK         0.0865 
     70 H70        16.1776  -28.6580  -44.6222 H         1 UNK         0.0865 
     71 H71        16.2002  -31.8555  -42.7590 H         1 UNK         0.1346 
     72 H72        19.5993  -33.4002  -44.8676 H         1 UNK         0.1412 
     73 H73        18.4024  -29.3178  -45.4020 H         1 UNK         0.1426 
     74 H74        20.0573  -31.7308  -47.1115 H         1 UNK         0.0716 
     75 H75        21.2091  -31.6874  -45.7999 H         1 UNK         0.0716 
     76 H76        22.5677  -29.6134  -45.0926 H         1 UNK         0.0695 
     77 H77        21.0798  -29.0959  -44.3323 H         1 UNK         0.0695 
     78 H78        22.8037  -27.3737  -46.1789 H         1 UNK         0.0983 
     79 H79        20.1383  -26.9526  -45.2040 H         1 UNK         0.3095 
     80 H80        19.8460  -23.5619  -45.7092 H         1 UNK         0.0454 
     81 H81        19.1227  -25.5213  -47.9559 H         1 UNK         0.0851 
     82 H82        20.0434  -24.0365  -48.1445 H         1 UNK         0.0851 
     83 H83        18.3580  -23.9579  -47.6644 H         1 UNK         0.0851 
     84 H84        17.9632  -25.7636  -45.7962 H         1 UNK         0.2976 
     85 H85        23.2899  -25.2286  -44.8619 H         1 UNK         0.3116 
     86 H86        24.5591  -24.1668  -43.3715 H         1 UNK         0.0646 
     87 H87        25.8860  -26.9185  -43.0488 H         1 UNK         0.0847 
     88 H88        26.5566  -25.4025  -42.4496 H         1 UNK         0.0847 
     89 H89        26.3337  -25.6445  -44.1704 H         1 UNK         0.0847 
     90 H90        24.9590  -26.8896  -41.2583 H         1 UNK         0.3040 
     91 H91        22.6891  -26.3313  -39.5646 H         1 UNK         0.1015 
     92 H92        25.4968  -25.7627  -38.4452 H         1 UNK         0.0786 
     93 H93        24.0380  -25.9278  -37.4750 H         1 UNK         0.0786 
     94 H94        24.1832  -24.6033  -38.6178 H         1 UNK         0.0786 
     95 H95        25.9524  -27.8610  -39.4625 H         1 UNK         0.3172 
     96 H96        25.0526  -30.2022  -38.1177 H         1 UNK         0.0595 
     97 H97        27.3528  -31.0389  -38.6018 H         1 UNK         0.0839 
     98 H98        27.3904  -29.3957  -37.9881 H         1 UNK         0.0839 
     99 H99        27.6255  -29.7024  -39.7098 H         1 UNK         0.0839 
    100 H100       25.4548  -29.4929  -41.5803 H         1 UNK         0.2998 
    101 H101       25.1873  -32.2257  -42.4648 H         1 UNK         0.0822 
    102 H102       25.0920  -31.1792  -44.7349 H         1 UNK         0.0787 
    103 H103       25.0267  -29.5835  -44.0063 H         1 UNK         0.0787 
    104 H104       26.4544  -30.5922  -43.7971 H         1 UNK         0.0787 
    105 H105       22.8584  -29.9558  -41.3910 H         1 UNK         0.3055 
    106 H106       20.5909  -30.9076  -42.9274 H         1 UNK         0.1106 
    107 H107       19.3154  -29.4236  -41.4355 H         1 UNK         0.0828 
    108 H108       20.7010  -29.2135  -40.3795 H         1 UNK         0.0828 
    109 H109       20.7398  -28.5719  -42.0199 H         1 UNK         0.0828 
    110 H110       21.6875  -33.1585  -42.1536 H         1 UNK         0.2931 
    111 H111       21.4092  -35.1349  -41.2105 H         1 UNK         0.0412 
    112 H112       22.6570  -33.1225  -39.4130 H         1 UNK         0.3472 
    113 H113       22.3974  -33.7741  -37.8161 H         1 UNK         0.3472 
    114 H114       19.0959  -35.8557  -40.5003 H         1 UNK         0.0970 
    115 H115       18.5588  -34.2035  -40.6215 H         1 UNK         0.0970 
    116 H116       16.9312  -34.0805  -42.2730 H         1 UNK         0.0612 
    117 H117       16.9512  -34.6808  -43.9066 H         1 UNK         0.0612 
@<TRIPOS>BOND
     1    1    2 1    
     2    1   62 1    
     3    1   63 1    
     4    1   64 1    
     5    2    3 2    
     6    2    4 am   BACKBONE|DICT|INTERRES
     7    4    5 1    
     8    4   65 1    
     9    5    6 1    
    10    5   25 1    
    11    5   66 1    
    12    6    7 1    
    13    6   67 1    
    14    6   68 1    
    15    7    8 1    
    16    8    9 1    
    17    8   69 1    
    18    8   70 1    
    19    9   10 ar   
    20    9   14 ar   
    21   10   11 ar   
    22   10   71 1    
    23   11   12 ar   
    24   11   61 1    
    25   12   13 ar   
    26   12   72 1    
    27   13   14 ar   
    28   13   15 1    
    29   14   73 1    
    30   15   16 1    
    31   15   74 1    
    32   15   75 1    
    33   16   17 1    
    34   17   18 1    
    35   17   76 1    
    36   17   77 1    
    37   18   19 1    
    38   18   27 1    
    39   18   78 1    
    40   19   20 am   BACKBONE|DICT|INTERRES
    41   19   79 1    
    42   20   21 2    
    43   20   22 1    
    44   22   23 1    
    45   22   24 1    
    46   22   80 1    
    47   23   81 1    
    48   23   82 1    
    49   23   83 1    
    50   24   25 am   BACKBONE|DICT|INTERRES
    51   24   84 1    
    52   25   26 2    
    53   27   28 2    
    54   27   29 am   BACKBONE|DICT|INTERRES
    55   29   30 1    
    56   29   85 1    
    57   30   31 1    
    58   30   32 1    
    59   30   86 1    
    60   31   87 1    
    61   31   88 1    
    62   31   89 1    
    63   32   33 2    
    64   32   34 am   BACKBONE|DICT|INTERRES
    65   34   35 1    
    66   34   90 1    
    67   35   36 1    
    68   35   37 1    
    69   35   91 1    
    70   36   92 1    
    71   36   93 1    
    72   36   94 1    
    73   37   38 2    
    74   37   39 am   BACKBONE|DICT|INTERRES
    75   39   40 1    
    76   39   95 1    
    77   40   41 1    
    78   40   42 1    
    79   40   96 1    
    80   41   97 1    
    81   41   98 1    
    82   41   99 1    
    83   42   43 2    
    84   42   44 am   BACKBONE|DICT|INTERRES
    85   44   45 1    
    86   44  100 1    
    87   45   46 1    
    88   45   47 1    
    89   45  101 1    
    90   46  102 1    
    91   46  103 1    
    92   46  104 1    
    93   47   48 2    
    94   47   49 am   BACKBONE|DICT|INTERRES
    95   49   50 1    
    96   49  105 1    
    97   50   51 1    
    98   50   52 1    
    99   50  106 1    
   100   51  107 1    
   101   51  108 1    
   102   51  109 1    
   103   52   53 2    
   104   52   54 am   BACKBONE|DICT|INTERRES
   105   54   55 1    
   106   54  110 1    
   107   55   56 1    
   108   55   59 1    
   109   55  111 1    
   110   56   57 am   BACKBONE|DICT|INTERRES
   111   56   58 2    
   112   57  112 1    
   113   57  113 1    
   114   59   60 1    
   115   59  114 1    
   116   59  115 1    
   117   60   61 1    
   118   61  116 1    
   119   61  117 1    
@<TRIPOS>SUBSTRUCTURE
     1 UNK         1 GROUP             0       ****    0 ROOT    
