@<TRIPOS>MOLECULE
3R8
117   119    1
SMALL
USER_CHARGES


@<TRIPOS>ATOM
      1 CA         19.5830  -25.1909  -49.1395 C.3       0 UNK        -0.2013 
      2 C          20.1791  -26.2387  -48.2118 C.2       0 UNK         0.4866 
      3 O          21.3989  -26.3996  -48.1745 O.2       0 UNK        -0.5176 
      4 N          19.3269  -26.9545  -47.4667 N.am      1 UNK        -0.4884 
      5 CA         19.7107  -27.9762  -46.4831 C.3       1 UNK         0.0853 
      6 C6         18.5185  -28.8841  -46.0853 C.3       10 UNK        -0.0849 
      7 S7         16.9825  -27.9725  -45.6944 S.3       10 UNK        -0.2776 
      8 C8         15.8484  -29.3484  -45.3197 C.3       10 UNK         0.0316 
      9 C9         16.2262  -30.0272  -44.0133 C.ar      10 UNK        -0.0863 
     10 C10        16.7669  -31.3167  -44.0058 C.ar      10 UNK        -0.1009 
     11 C11        17.1691  -31.9099  -42.8044 C.ar      10 UNK        -0.0712 
     12 C12        17.0228  -31.2025  -41.6054 C.ar      10 UNK        -0.0894 
     13 C13        16.4714  -29.9162  -41.6029 C.ar      10 UNK        -0.0745 
     14 C14        16.0609  -29.3428  -42.8077 C.ar      10 UNK        -0.0972 
     15 C15        16.3439  -29.1236  -40.3089 C.3       10 UNK         0.0209 
     16 S16        17.4039  -27.6388  -40.3147 S.3       10 UNK        -0.2568 
     17 C17        19.0526  -28.4115  -40.4036 C.3       10 UNK        -0.0983 
     18 CA         20.2142  -27.4249  -40.6607 C.3       3 UNK         0.0876 
     19 N          20.0577  -26.6811  -41.9200 N.am      3 UNK        -0.4424 
     20 C          21.0232  -25.9556  -42.5017 C.2       2 UNK         0.4918 
     21 O          22.1312  -25.7768  -41.9903 O.2       2 UNK        -0.4875 
     22 CA         20.6827  -25.2963  -43.8548 C.3       2 UNK         0.0481 
     23 CB         21.9182  -24.6431  -44.5089 C.3       2 UNK        -0.1831 
     24 N          20.0197  -26.1805  -44.8249 N.am      2 UNK        -0.4498 
     25 C          20.4386  -27.3828  -45.2565 C.2       1 UNK         0.5027 
     26 O          21.3831  -28.0017  -44.7700 O.2       1 UNK        -0.4969 
     27 C          20.5367  -26.5605  -39.4223 C.2       3 UNK         0.5005 
     28 O          21.0736  -27.0896  -38.4478 O.2       3 UNK        -0.5279 
     29 N          20.2572  -25.2507  -39.4922 N.am      4 UNK        -0.4463 
     30 CA         20.6803  -24.2531  -38.5061 C.3       4 UNK         0.0283 
     31 CB         19.9666  -22.9226  -38.7938 C.3       4 UNK        -0.1875 
     32 C          22.2081  -24.0458  -38.4643 C.2       4 UNK         0.4949 
     33 O          22.7265  -23.6578  -37.4171 O.2       4 UNK        -0.5039 
     34 N          22.8967  -24.3051  -39.5856 N.am      5 UNK        -0.4663 
     35 CA         24.3544  -24.2788  -39.6927 C.3       5 UNK         0.0242 
     36 CB         24.7673  -23.6653  -41.0431 C.3       5 UNK        -0.1982 
     37 C          24.9137  -25.6976  -39.5197 C.2       5 UNK         0.5017 
     38 O          25.6610  -25.9396  -38.5713 O.2       5 UNK        -0.5012 
     39 N          24.5242  -26.6084  -40.4206 N.am      6 UNK        -0.4439 
     40 CA         24.9006  -28.0210  -40.4343 C.3       6 UNK         0.0297 
     41 CB         26.3978  -28.2044  -40.7573 C.3       6 UNK        -0.2006 
     42 C          24.0304  -28.7190  -41.4822 C.2       6 UNK         0.4892 
     43 O          24.0698  -28.3241  -42.6475 O.2       6 UNK        -0.5089 
     44 N          23.2487  -29.7152  -41.0472 N.am      7 UNK        -0.4243 
     45 CA         22.2662  -30.4141  -41.8801 C.3       7 UNK         0.0196 
     46 CB         21.2869  -31.1781  -40.9698 C.3       7 UNK        -0.2007 
     47 C          22.9167  -31.3612  -42.8993 C.2       7 UNK         0.5020 
     48 O          22.5820  -31.3081  -44.0819 O.2       7 UNK        -0.5147 
     49 N          23.8160  -32.2283  -42.4053 N.am      8 UNK        -0.4734 
     50 CA         24.5261  -33.2895  -43.1406 C.3       8 UNK         0.0238 
     51 CB         25.5307  -32.6745  -44.1387 C.3       8 UNK        -0.1912 
     52 C          23.6001  -34.3365  -43.8046 C.2       8 UNK         0.5038 
     53 O          24.0136  -34.9947  -44.7614 O.2       8 UNK        -0.5046 
     54 N          22.3696  -34.4688  -43.2921 N.am      9 UNK        -0.4200 
     55 CA         21.3304  -35.3863  -43.7794 C.3       9 UNK         0.0839 
     56 C          21.6861  -36.8758  -43.5251 C.2       9 UNK         0.5513 
     57 N          21.2821  -37.7699  -44.4169 N.am      9 UNK        -0.7519 
     58 O          22.2823  -37.2307  -42.5098 O.2       9 UNK        -0.4960 
     59 C59        19.9427  -35.0424  -43.1759 C.3       10 UNK        -0.0876 
     60 S60        19.4188  -33.3364  -43.5544 S.3       10 UNK        -0.2414 
     61 C61        17.7613  -33.3129  -42.8058 C.3       10 UNK         0.0169 
     62 H62        19.8565  -25.4051  -50.1723 H         1 UNK         0.0903 
     63 H63        18.4953  -25.1608  -49.0763 H         1 UNK         0.0903 
     64 H64        19.9649  -24.2030  -48.8836 H         1 UNK         0.0903 
     65 H65        18.3322  -26.7871  -47.5391 H         1 UNK         0.3096 
     66 H66        20.4463  -28.6202  -46.9714 H         1 UNK         0.1121 
     67 H67        18.7856  -29.5279  -45.2442 H         1 UNK         0.0849 
     68 H68        18.2973  -29.5610  -46.9121 H         1 UNK         0.0849 
     69 H69        14.8311  -28.9615  -45.2437 H         1 UNK         0.0865 
     70 H70        15.8456  -30.0589  -46.1479 H         1 UNK         0.0865 
     71 H71        16.8972  -31.8542  -44.9353 H         1 UNK         0.1346 
     72 H72        17.3463  -31.6497  -40.6754 H         1 UNK         0.1412 
     73 H73        15.6506  -28.3418  -42.8116 H         1 UNK         0.1426 
     74 H74        16.5963  -29.7408  -39.4452 H         1 UNK         0.0716 
     75 H75        15.3052  -28.8176  -40.1769 H         1 UNK         0.0716 
     76 H76        19.2186  -28.9765  -39.4844 H         1 UNK         0.0695 
     77 H77        19.0458  -29.1481  -41.2077 H         1 UNK         0.0695 
     78 H78        21.1078  -28.0324  -40.7954 H         1 UNK         0.0983 
     79 H79        19.1664  -26.7751  -42.3858 H         1 UNK         0.3095 
     80 H80        19.9705  -24.5008  -43.6319 H         1 UNK         0.0454 
     81 H81        22.3603  -23.8910  -43.8541 H         1 UNK         0.0851 
     82 H82        21.6582  -24.1450  -45.4428 H         1 UNK         0.0851 
     83 H83        22.6919  -25.3804  -44.7273 H         1 UNK         0.0851 
     84 H84        19.2100  -25.7911  -45.2876 H         1 UNK         0.2976 
     85 H85        19.7919  -24.9091  -40.3204 H         1 UNK         0.3116 
     86 H86        20.3683  -24.6024  -37.5195 H         1 UNK         0.0646 
     87 H87        20.2394  -22.1672  -38.0554 H         1 UNK         0.0847 
     88 H88        20.2288  -22.5262  -39.7756 H         1 UNK         0.0847 
     89 H89        18.8830  -23.0349  -38.7533 H         1 UNK         0.0847 
     90 H90        22.3997  -24.6733  -40.3903 H         1 UNK         0.3040 
     91 H91        24.7784  -23.6550  -38.9022 H         1 UNK         0.1015 
     92 H92        25.8527  -23.6587  -41.1514 H         1 UNK         0.0786 
     93 H93        24.4285  -22.6323  -41.1238 H         1 UNK         0.0786 
     94 H94        24.3584  -24.2143  -41.8919 H         1 UNK         0.0786 
     95 H95        23.8728  -26.3320  -41.1527 H         1 UNK         0.3172 
     96 H96        24.6926  -28.4446  -39.4495 H         1 UNK         0.0595 
     97 H97        26.6658  -27.7290  -41.7017 H         1 UNK         0.0839 
     98 H98        26.6512  -29.2620  -40.8413 H         1 UNK         0.0839 
     99 H99        27.0345  -27.7843  -39.9791 H         1 UNK         0.0839 
    100 H100       23.2949  -29.9820  -40.0739 H         1 UNK         0.2998 
    101 H101       21.7004  -29.6648  -42.4396 H         1 UNK         0.0822 
    102 H102       20.4239  -31.5257  -41.5368 H         1 UNK         0.0787 
    103 H103       21.7474  -32.0505  -40.5049 H         1 UNK         0.0787 
    104 H104       20.9080  -30.5482  -40.1669 H         1 UNK         0.0787 
    105 H105       24.0160  -32.1788  -41.4156 H         1 UNK         0.3055 
    106 H106       25.1023  -33.8424  -42.3968 H         1 UNK         0.1106 
    107 H107       26.1878  -31.9560  -43.6488 H         1 UNK         0.0828 
    108 H108       26.1668  -33.4423  -44.5810 H         1 UNK         0.0828 
    109 H109       25.0244  -32.1617  -44.9570 H         1 UNK         0.0828 
    110 H110       22.1142  -33.8872  -42.5098 H         1 UNK         0.2931 
    111 H111       21.2665  -35.2424  -44.8602 H         1 UNK         0.0412 
    112 H112       20.7847  -37.4892  -45.2483 H         1 UNK         0.3472 
    113 H113       21.4886  -38.7449  -44.2629 H         1 UNK         0.3472 
    114 H114       19.1815  -35.7230  -43.5628 H         1 UNK         0.0970 
    115 H115       19.9517  -35.1754  -42.0922 H         1 UNK         0.0970 
    116 H116       17.8215  -33.7029  -41.7885 H         1 UNK         0.0612 
    117 H117       17.1053  -33.9859  -43.3598 H         1 UNK         0.0612 
@<TRIPOS>BOND
     1    1    2 1    
     2    1   62 1    
     3    1   63 1    
     4    1   64 1    
     5    2    3 2    
     6    2    4 am   BACKBONE|DICT|INTERRES
     7    4    5 1    
     8    4   65 1    
     9    5    6 1    
    10    5   25 1    
    11    5   66 1    
    12    6    7 1    
    13    6   67 1    
    14    6   68 1    
    15    7    8 1    
    16    8    9 1    
    17    8   69 1    
    18    8   70 1    
    19    9   10 ar   
    20    9   14 ar   
    21   10   11 ar   
    22   10   71 1    
    23   11   12 ar   
    24   11   61 1    
    25   12   13 ar   
    26   12   72 1    
    27   13   14 ar   
    28   13   15 1    
    29   14   73 1    
    30   15   16 1    
    31   15   74 1    
    32   15   75 1    
    33   16   17 1    
    34   17   18 1    
    35   17   76 1    
    36   17   77 1    
    37   18   19 1    
    38   18   27 1    
    39   18   78 1    
    40   19   20 am   BACKBONE|DICT|INTERRES
    41   19   79 1    
    42   20   21 2    
    43   20   22 1    
    44   22   23 1    
    45   22   24 1    
    46   22   80 1    
    47   23   81 1    
    48   23   82 1    
    49   23   83 1    
    50   24   25 am   BACKBONE|DICT|INTERRES
    51   24   84 1    
    52   25   26 2    
    53   27   28 2    
    54   27   29 am   BACKBONE|DICT|INTERRES
    55   29   30 1    
    56   29   85 1    
    57   30   31 1    
    58   30   32 1    
    59   30   86 1    
    60   31   87 1    
    61   31   88 1    
    62   31   89 1    
    63   32   33 2    
    64   32   34 am   BACKBONE|DICT|INTERRES
    65   34   35 1    
    66   34   90 1    
    67   35   36 1    
    68   35   37 1    
    69   35   91 1    
    70   36   92 1    
    71   36   93 1    
    72   36   94 1    
    73   37   38 2    
    74   37   39 am   BACKBONE|DICT|INTERRES
    75   39   40 1    
    76   39   95 1    
    77   40   41 1    
    78   40   42 1    
    79   40   96 1    
    80   41   97 1    
    81   41   98 1    
    82   41   99 1    
    83   42   43 2    
    84   42   44 am   BACKBONE|DICT|INTERRES
    85   44   45 1    
    86   44  100 1    
    87   45   46 1    
    88   45   47 1    
    89   45  101 1    
    90   46  102 1    
    91   46  103 1    
    92   46  104 1    
    93   47   48 2    
    94   47   49 am   BACKBONE|DICT|INTERRES
    95   49   50 1    
    96   49  105 1    
    97   50   51 1    
    98   50   52 1    
    99   50  106 1    
   100   51  107 1    
   101   51  108 1    
   102   51  109 1    
   103   52   53 2    
   104   52   54 am   BACKBONE|DICT|INTERRES
   105   54   55 1    
   106   54  110 1    
   107   55   56 1    
   108   55   59 1    
   109   55  111 1    
   110   56   57 am   BACKBONE|DICT|INTERRES
   111   56   58 2    
   112   57  112 1    
   113   57  113 1    
   114   59   60 1    
   115   59  114 1    
   116   59  115 1    
   117   60   61 1    
   118   61  116 1    
   119   61  117 1    
@<TRIPOS>SUBSTRUCTURE
     1 UNK         1 GROUP             0       ****    0 ROOT    
