@<TRIPOS>MOLECULE
3R8
117   119    1
SMALL
USER_CHARGES


@<TRIPOS>ATOM
      1 CA         14.8745  -25.7996  -45.2105 C.3       0 UNK        -0.2013 
      2 C          14.5638  -26.5400  -46.5096 C.2       0 UNK         0.4866 
      3 O          13.4854  -26.3271  -47.0613 O.2       0 UNK        -0.5176 
      4 N          15.4234  -27.4194  -47.0491 N.am      1 UNK        -0.4884 
      5 CA         16.7804  -27.8281  -46.6457 C.3       1 UNK         0.0853 
      6 C6         16.9085  -28.3457  -45.1862 C.3       10 UNK        -0.0849 
      7 S7         15.7726  -29.7058  -44.7418 S.3       10 UNK        -0.2776 
      8 C8         15.2210  -29.2532  -43.0563 C.3       10 UNK         0.0316 
      9 C9         16.3706  -28.8004  -42.1630 C.ar      10 UNK        -0.0863 
     10 C10        17.2797  -29.7276  -41.6449 C.ar      10 UNK        -0.1009 
     11 C11        18.3746  -29.2958  -40.8885 C.ar      10 UNK        -0.0712 
     12 C12        18.5514  -27.9312  -40.6415 C.ar      10 UNK        -0.0894 
     13 C13        17.6623  -26.9970  -41.1757 C.ar      10 UNK        -0.0745 
     14 C14        16.5545  -27.4391  -41.9011 C.ar      10 UNK        -0.0972 
     15 C15        17.9247  -25.5071  -41.0345 C.3       10 UNK         0.0209 
     16 S16        18.6386  -24.8325  -42.5720 S.3       10 UNK        -0.2568 
     17 C17        20.4017  -25.2911  -42.4261 C.3       10 UNK        -0.0983 
     18 CA         20.7854  -26.6160  -43.1479 C.3       3 UNK         0.0876 
     19 N          20.3641  -26.6831  -44.5564 N.am      3 UNK        -0.4424 
     20 C          20.8148  -25.9385  -45.5792 C.2       2 UNK         0.4918 
     21 O          21.6380  -25.0312  -45.4601 O.2       2 UNK        -0.4875 
     22 CA         20.2926  -26.2925  -46.9872 C.3       2 UNK         0.0481 
     23 CB         21.4016  -26.9796  -47.8023 C.3       2 UNK        -0.1831 
     24 N          19.1180  -27.1727  -46.9489 N.am      2 UNK        -0.4498 
     25 C          17.8477  -26.7447  -46.9263 C.2       1 UNK         0.5027 
     26 O          17.5266  -25.5642  -47.0789 O.2       1 UNK        -0.4969 
     27 C          22.2809  -26.9774  -42.9646 C.2       3 UNK         0.5005 
     28 O          22.9416  -26.4244  -42.0828 O.2       3 UNK        -0.5279 
     29 N          22.7833  -27.8912  -43.8138 N.am      4 UNK        -0.4463 
     30 CA         24.1765  -28.3348  -43.9401 C.3       4 UNK         0.0283 
     31 CB         24.2372  -29.5214  -44.9163 C.3       4 UNK        -0.1875 
     32 C          24.8372  -28.6913  -42.5979 C.2       4 UNK         0.4949 
     33 O          24.5200  -29.7284  -42.0101 O.2       4 UNK        -0.5039 
     34 N          25.6971  -27.7812  -42.1159 N.am      5 UNK        -0.4663 
     35 CA         26.4333  -27.8134  -40.8416 C.3       5 UNK         0.0242 
     36 CB         27.4803  -28.9479  -40.8701 C.3       5 UNK        -0.1982 
     37 C          25.5480  -27.8976  -39.5781 C.2       5 UNK         0.5017 
     38 O          26.0801  -28.1378  -38.4935 O.2       5 UNK        -0.5012 
     39 N          24.2230  -27.7456  -39.7401 N.am      6 UNK        -0.4439 
     40 CA         23.1619  -28.0718  -38.7806 C.3       6 UNK         0.0297 
     41 CB         23.1225  -27.0289  -37.6446 C.3       6 UNK        -0.2006 
     42 C          23.2353  -29.5271  -38.2590 C.2       6 UNK         0.4892 
     43 O          22.8487  -29.7791  -37.1159 O.2       6 UNK        -0.5089 
     44 N          23.7464  -30.4536  -39.0860 N.am      7 UNK        -0.4243 
     45 CA         24.0177  -31.8395  -38.6981 C.3       7 UNK         0.0196 
     46 CB         25.3515  -31.9300  -37.9331 C.3       7 UNK        -0.2007 
     47 C          24.0125  -32.7922  -39.8974 C.2       7 UNK         0.5020 
     48 O          23.3580  -33.8328  -39.8329 O.2       7 UNK        -0.5147 
     49 N          24.7161  -32.4316  -40.9812 N.am      8 UNK        -0.4734 
     50 CA         24.7949  -33.2261  -42.2168 C.3       8 UNK         0.0238 
     51 CB         25.9255  -32.6846  -43.1063 C.3       8 UNK        -0.1912 
     52 C          23.4618  -33.2781  -42.9854 C.2       8 UNK         0.5038 
     53 O          23.2305  -34.2205  -43.7433 O.2       8 UNK        -0.5046 
     54 N          22.6029  -32.2847  -42.7359 N.am      9 UNK        -0.4200 
     55 CA         21.1814  -32.2449  -43.0981 C.3       9 UNK         0.0839 
     56 C          20.2886  -33.3200  -42.4077 C.2       9 UNK         0.5513 
     57 N          20.7445  -34.0165  -41.3722 N.am      9 UNK        -0.7519 
     58 O          19.1541  -33.5280  -42.8290 O.2       9 UNK        -0.4960 
     59 C59        20.6051  -30.8179  -42.9003 C.3       10 UNK        -0.0876 
     60 S60        20.9832  -30.1091  -41.2555 S.3       10 UNK        -0.2414 
     61 C61        19.4013  -30.2911  -40.3761 C.3       10 UNK         0.0169 
     62 H62        14.2955  -24.8779  -45.1596 H         1 UNK         0.0903 
     63 H63        14.5925  -26.4117  -44.3564 H         1 UNK         0.0903 
     64 H64        15.9206  -25.5200  -45.1147 H         1 UNK         0.0903 
     65 H65        15.1254  -27.8531  -47.9119 H         1 UNK         0.3096 
     66 H66        17.0211  -28.6631  -47.3064 H         1 UNK         0.1121 
     67 H67        16.7947  -27.5187  -44.4921 H         1 UNK         0.0849 
     68 H68        17.9122  -28.7325  -45.0048 H         1 UNK         0.0849 
     69 H69        14.4600  -28.4752  -43.1269 H         1 UNK         0.0865 
     70 H70        14.7269  -30.1139  -42.6034 H         1 UNK         0.0865 
     71 H71        17.1520  -30.7801  -41.8598 H         1 UNK         0.1346 
     72 H72        19.4140  -27.5964  -40.0815 H         1 UNK         0.1412 
     73 H73        15.8703  -26.7116  -42.3150 H         1 UNK         0.1426 
     74 H74        18.5809  -25.2988  -40.1881 H         1 UNK         0.0716 
     75 H75        16.9856  -24.9921  -40.8265 H         1 UNK         0.0716 
     76 H76        20.6560  -25.3473  -41.3662 H         1 UNK         0.0695 
     77 H77        20.9890  -24.4636  -42.8276 H         1 UNK         0.0695 
     78 H78        20.2464  -27.4214  -42.6519 H         1 UNK         0.0983 
     79 H79        19.6634  -27.3765  -44.7608 H         1 UNK         0.3095 
     80 H80        20.0389  -25.3562  -47.4887 H         1 UNK         0.0454 
     81 H81        21.7181  -27.9203  -47.3505 H         1 UNK         0.0851 
     82 H82        22.2840  -26.3423  -47.8768 H         1 UNK         0.0851 
     83 H83        21.0723  -27.1900  -48.8199 H         1 UNK         0.0851 
     84 H84        19.3024  -28.1647  -46.8900 H         1 UNK         0.2976 
     85 H85        22.1465  -28.2766  -44.4929 H         1 UNK         0.3116 
     86 H86        24.7326  -27.5097  -44.3894 H         1 UNK         0.0646 
     87 H87        23.8653  -29.2463  -45.9033 H         1 UNK         0.0847 
     88 H88        25.2637  -29.8661  -45.0471 H         1 UNK         0.0847 
     89 H89        23.6513  -30.3693  -44.5613 H         1 UNK         0.0847 
     90 H90        25.8267  -26.9373  -42.6579 H         1 UNK         0.3040 
     91 H91        26.9677  -26.8648  -40.7694 H         1 UNK         0.1015 
     92 H92        27.0119  -29.9324  -40.8773 H         1 UNK         0.0786 
     93 H93        28.1316  -28.9058  -39.9961 H         1 UNK         0.0786 
     94 H94        28.1201  -28.8753  -41.7495 H         1 UNK         0.0786 
     95 H95        23.8987  -27.4829  -40.6675 H         1 UNK         0.3172 
     96 H96        22.2240  -27.9948  -39.3322 H         1 UNK         0.0595 
     97 H97        24.0114  -27.0846  -37.0155 H         1 UNK         0.0839 
     98 H98        22.2567  -27.1835  -36.9997 H         1 UNK         0.0839 
     99 H99        23.0530  -26.0154  -38.0395 H         1 UNK         0.0839 
    100 H100       23.9853  -30.1782  -40.0332 H         1 UNK         0.2998 
    101 H101       23.2187  -32.1758  -38.0332 H         1 UNK         0.0822 
    102 H102       25.5854  -32.9630  -37.6717 H         1 UNK         0.0787 
    103 H103       26.1823  -31.5433  -38.5247 H         1 UNK         0.0787 
    104 H104       25.3147  -31.3624  -37.0031 H         1 UNK         0.0787 
    105 H105       25.1709  -31.5278  -41.0052 H         1 UNK         0.3055 
    106 H106       25.0427  -34.2535  -41.9405 H         1 UNK         0.1106 
    107 H107       26.0206  -33.2749  -44.0187 H         1 UNK         0.0828 
    108 H108       25.7485  -31.6522  -43.4047 H         1 UNK         0.0828 
    109 H109       26.8868  -32.7246  -42.5941 H         1 UNK         0.0828 
    110 H110       22.9113  -31.5435  -42.1211 H         1 UNK         0.2931 
    111 H111       21.1299  -32.4669  -44.1657 H         1 UNK         0.0412 
    112 H112       20.1472  -34.7082  -40.9482 H         1 UNK         0.3472 
    113 H113       21.6734  -33.8616  -40.9983 H         1 UNK         0.3472 
    114 H114       21.0422  -30.1562  -43.6469 H         1 UNK         0.0970 
    115 H115       19.5309  -30.7924  -43.0916 H         1 UNK         0.0970 
    116 H116       19.0422  -31.3168  -40.4714 H         1 UNK         0.0612 
    117 H117       19.5692  -30.1195  -39.3120 H         1 UNK         0.0612 
@<TRIPOS>BOND
     1    1    2 1    
     2    1   62 1    
     3    1   63 1    
     4    1   64 1    
     5    2    3 2    
     6    2    4 am   BACKBONE|DICT|INTERRES
     7    4    5 1    
     8    4   65 1    
     9    5    6 1    
    10    5   25 1    
    11    5   66 1    
    12    6    7 1    
    13    6   67 1    
    14    6   68 1    
    15    7    8 1    
    16    8    9 1    
    17    8   69 1    
    18    8   70 1    
    19    9   10 ar   
    20    9   14 ar   
    21   10   11 ar   
    22   10   71 1    
    23   11   12 ar   
    24   11   61 1    
    25   12   13 ar   
    26   12   72 1    
    27   13   14 ar   
    28   13   15 1    
    29   14   73 1    
    30   15   16 1    
    31   15   74 1    
    32   15   75 1    
    33   16   17 1    
    34   17   18 1    
    35   17   76 1    
    36   17   77 1    
    37   18   19 1    
    38   18   27 1    
    39   18   78 1    
    40   19   20 am   BACKBONE|DICT|INTERRES
    41   19   79 1    
    42   20   21 2    
    43   20   22 1    
    44   22   23 1    
    45   22   24 1    
    46   22   80 1    
    47   23   81 1    
    48   23   82 1    
    49   23   83 1    
    50   24   25 am   BACKBONE|DICT|INTERRES
    51   24   84 1    
    52   25   26 2    
    53   27   28 2    
    54   27   29 am   BACKBONE|DICT|INTERRES
    55   29   30 1    
    56   29   85 1    
    57   30   31 1    
    58   30   32 1    
    59   30   86 1    
    60   31   87 1    
    61   31   88 1    
    62   31   89 1    
    63   32   33 2    
    64   32   34 am   BACKBONE|DICT|INTERRES
    65   34   35 1    
    66   34   90 1    
    67   35   36 1    
    68   35   37 1    
    69   35   91 1    
    70   36   92 1    
    71   36   93 1    
    72   36   94 1    
    73   37   38 2    
    74   37   39 am   BACKBONE|DICT|INTERRES
    75   39   40 1    
    76   39   95 1    
    77   40   41 1    
    78   40   42 1    
    79   40   96 1    
    80   41   97 1    
    81   41   98 1    
    82   41   99 1    
    83   42   43 2    
    84   42   44 am   BACKBONE|DICT|INTERRES
    85   44   45 1    
    86   44  100 1    
    87   45   46 1    
    88   45   47 1    
    89   45  101 1    
    90   46  102 1    
    91   46  103 1    
    92   46  104 1    
    93   47   48 2    
    94   47   49 am   BACKBONE|DICT|INTERRES
    95   49   50 1    
    96   49  105 1    
    97   50   51 1    
    98   50   52 1    
    99   50  106 1    
   100   51  107 1    
   101   51  108 1    
   102   51  109 1    
   103   52   53 2    
   104   52   54 am   BACKBONE|DICT|INTERRES
   105   54   55 1    
   106   54  110 1    
   107   55   56 1    
   108   55   59 1    
   109   55  111 1    
   110   56   57 am   BACKBONE|DICT|INTERRES
   111   56   58 2    
   112   57  112 1    
   113   57  113 1    
   114   59   60 1    
   115   59  114 1    
   116   59  115 1    
   117   60   61 1    
   118   61  116 1    
   119   61  117 1    
@<TRIPOS>SUBSTRUCTURE
     1 UNK         1 GROUP             0       ****    0 ROOT    
