@<TRIPOS>MOLECULE
3R8
117   119    1
SMALL
USER_CHARGES


@<TRIPOS>ATOM
      1 CA         16.1395  -23.5142  -45.6043 C.3       0 UNK        -0.2013 
      2 C          16.6433  -24.9495  -45.5919 C.2       0 UNK         0.4866 
      3 O          17.8435  -25.1767  -45.7292 O.2       0 UNK        -0.5176 
      4 N          15.7342  -25.9195  -45.4261 N.am      1 UNK        -0.4884 
      5 CA         16.0363  -27.3576  -45.3719 C.3       1 UNK         0.0853 
      6 C6         14.7787  -28.1766  -45.7629 C.3       10 UNK        -0.0849 
      7 S7         15.0291  -29.9441  -46.1552 S.3       10 UNK        -0.2776 
      8 C8         16.2905  -29.9368  -47.4765 C.3       10 UNK         0.0316 
      9 C9         17.6860  -30.2123  -46.9278 C.ar      10 UNK        -0.0863 
     10 C10        17.9532  -31.4275  -46.2890 C.ar      10 UNK        -0.1009 
     11 C11        19.2175  -31.6934  -45.7571 C.ar      10 UNK        -0.0712 
     12 C12        20.2301  -30.7382  -45.8889 C.ar      10 UNK        -0.0894 
     13 C13        19.9754  -29.5148  -46.5137 C.ar      10 UNK        -0.0745 
     14 C14        18.7076  -29.2640  -47.0485 C.ar      10 UNK        -0.0972 
     15 C15        21.0648  -28.4569  -46.5987 C.3       10 UNK         0.0209 
     16 S16        20.8367  -27.1535  -45.3469 S.3       10 UNK        -0.2568 
     17 C17        21.3844  -27.9850  -43.8196 C.3       10 UNK        -0.0983 
     18 CA         20.8124  -27.3021  -42.5544 C.3       3 UNK         0.0876 
     19 N          19.3608  -27.4612  -42.4495 N.am      3 UNK        -0.4424 
     20 C          18.5676  -26.7785  -41.6152 C.2       2 UNK         0.4918 
     21 O          18.9752  -25.8870  -40.8680 O.2       2 UNK        -0.4875 
     22 CA         17.0650  -27.1337  -41.6442 C.3       2 UNK         0.0481 
     23 CB         16.2439  -26.3232  -40.6244 C.3       2 UNK        -0.1831 
     24 N          16.4830  -26.9498  -42.9756 N.am      2 UNK        -0.4498 
     25 C          16.6429  -27.7842  -44.0130 C.2       1 UNK         0.5027 
     26 O          17.2793  -28.8342  -43.9234 O.2       1 UNK        -0.4969 
     27 C          21.5062  -27.8296  -41.2835 C.2       3 UNK         0.5005 
     28 O          21.1641  -28.9129  -40.7999 O.2       3 UNK        -0.5279 
     29 N          22.4774  -27.0605  -40.7843 N.am      4 UNK        -0.4463 
     30 CA         23.2825  -27.3548  -39.6036 C.3       4 UNK         0.0283 
     31 CB         22.7305  -26.5704  -38.4018 C.3       4 UNK        -0.1875 
     32 C          24.7352  -26.9634  -39.8985 C.2       4 UNK         0.4949 
     33 O          24.9788  -26.1706  -40.8128 O.2       4 UNK        -0.5039 
     34 N          25.6734  -27.5414  -39.1367 N.am      5 UNK        -0.4663 
     35 CA         27.1395  -27.4221  -39.2263 C.3       5 UNK         0.0242 
     36 CB         27.6143  -25.9653  -39.0542 C.3       5 UNK        -0.1982 
     37 C          27.7311  -28.0674  -40.4928 C.2       5 UNK         0.5017 
     38 O          28.6239  -28.9079  -40.3839 O.2       5 UNK        -0.5012 
     39 N          27.1926  -27.7012  -41.6619 N.am      6 UNK        -0.4439 
     40 CA         27.4457  -28.3448  -42.9546 C.3       6 UNK         0.0297 
     41 CB         27.0740  -27.3622  -44.0773 C.3       6 UNK        -0.2006 
     42 C          26.6702  -29.6679  -43.1214 C.2       6 UNK         0.4892 
     43 O          26.9800  -30.4386  -44.0303 O.2       6 UNK        -0.5089 
     44 N          25.6812  -29.9010  -42.2523 N.am      7 UNK        -0.4243 
     45 CA         24.8365  -31.0859  -42.1667 C.3       7 UNK         0.0196 
     46 CB         23.7194  -31.0193  -43.2292 C.3       7 UNK        -0.2007 
     47 C          24.2844  -31.1582  -40.7335 C.2       7 UNK         0.5020 
     48 O          24.7739  -30.4474  -39.8520 O.2       7 UNK        -0.5147 
     49 N          23.2675  -31.9964  -40.5217 N.am      8 UNK        -0.4734 
     50 CA         22.5278  -32.1106  -39.2640 C.3       8 UNK         0.0238 
     51 CB         23.2041  -33.1473  -38.3447 C.3       8 UNK        -0.1912 
     52 C          21.0615  -32.4360  -39.5813 C.2       8 UNK         0.5038 
     53 O          20.5099  -33.3990  -39.0447 O.2       8 UNK        -0.5046 
     54 N          20.4809  -31.6506  -40.4941 N.am      9 UNK        -0.4200 
     55 CA         19.1208  -31.8239  -41.0243 C.3       9 UNK         0.0839 
     56 C          18.0844  -30.8921  -40.3396 C.2       9 UNK         0.5513 
     57 N          18.4995  -29.8393  -39.6442 N.am      9 UNK        -0.7519 
     58 O          16.8854  -31.1442  -40.4196 O.2       9 UNK        -0.4960 
     59 C59        19.0911  -31.6568  -42.5654 C.3       10 UNK        -0.0876 
     60 S60        20.2566  -32.7896  -43.4036 S.3       10 UNK        -0.2414 
     61 C61        19.4738  -33.0105  -45.0343 C.3       10 UNK         0.0169 
     62 H62        16.3880  -23.0385  -46.5526 H         1 UNK         0.0903 
     63 H63        15.0595  -23.4580  -45.4701 H         1 UNK         0.0903 
     64 H64        16.6109  -22.9444  -44.8041 H         1 UNK         0.0903 
     65 H65        14.7594  -25.6703  -45.3269 H         1 UNK         0.3096 
     66 H66        16.8080  -27.5424  -46.1171 H         1 UNK         0.1121 
     67 H67        14.0269  -28.1105  -44.9742 H         1 UNK         0.0849 
     68 H68        14.3151  -27.7308  -46.6448 H         1 UNK         0.0849 
     69 H69        16.0425  -30.7170  -48.1974 H         1 UNK         0.0865 
     70 H70        16.2542  -28.9956  -48.0270 H         1 UNK         0.0865 
     71 H71        17.1629  -32.1591  -46.1892 H         1 UNK         0.1346 
     72 H72        21.2099  -30.9380  -45.4771 H         1 UNK         0.1412 
     73 H73        18.5170  -28.3184  -47.5373 H         1 UNK         0.1426 
     74 H74        21.0480  -27.9997  -47.5891 H         1 UNK         0.0716 
     75 H75        22.0540  -28.9034  -46.4850 H         1 UNK         0.0716 
     76 H76        22.4761  -27.9658  -43.8143 H         1 UNK         0.0695 
     77 H77        21.0902  -29.0346  -43.8456 H         1 UNK         0.0695 
     78 H78        21.0139  -26.2308  -42.6270 H         1 UNK         0.0983 
     79 H79        18.9295  -28.1541  -43.0525 H         1 UNK         0.3095 
     80 H80        16.9753  -28.1866  -41.3719 H         1 UNK         0.0454 
     81 H81        16.6262  -26.4673  -39.6129 H         1 UNK         0.0851 
     82 H82        15.1990  -26.6334  -40.6195 H         1 UNK         0.0851 
     83 H83        16.2768  -25.2537  -40.8360 H         1 UNK         0.0851 
     84 H84        15.9893  -26.0848  -43.1400 H         1 UNK         0.2976 
     85 H85        22.7686  -26.2293  -41.2840 H         1 UNK         0.3116 
     86 H86        23.2446  -28.4219  -39.3808 H         1 UNK         0.0646 
     87 H87        23.3036  -26.7800  -37.4979 H         1 UNK         0.0847 
     88 H88        21.6941  -26.8400  -38.1975 H         1 UNK         0.0847 
     89 H89        22.7683  -25.4935  -38.5711 H         1 UNK         0.0847 
     90 H90        25.3535  -28.2264  -38.4636 H         1 UNK         0.3040 
     91 H91        27.5313  -27.9901  -38.3804 H         1 UNK         0.1015 
     92 H92        28.7034  -25.9159  -39.0166 H         1 UNK         0.0786 
     93 H93        27.2388  -25.5344  -38.1261 H         1 UNK         0.0786 
     94 H94        27.2924  -25.3240  -39.8749 H         1 UNK         0.0786 
     95 H95        26.4491  -27.0066  -41.6238 H         1 UNK         0.3172 
     96 H96        28.5109  -28.5718  -43.0331 H         1 UNK         0.0595 
     97 H97        26.0160  -27.0978  -44.0487 H         1 UNK         0.0839 
     98 H98        27.2754  -27.7951  -45.0583 H         1 UNK         0.0839 
     99 H99        27.6527  -26.4411  -44.0065 H         1 UNK         0.0839 
    100 H100       25.5596  -29.2617  -41.4777 H         1 UNK         0.2998 
    101 H101       25.4526  -31.9714  -42.3351 H         1 UNK         0.0822 
    102 H102       24.1156  -30.7950  -44.2196 H         1 UNK         0.0787 
    103 H103       22.9821  -30.2560  -42.9834 H         1 UNK         0.0787 
    104 H104       23.1937  -31.9706  -43.3096 H         1 UNK         0.0787 
    105 H105       22.8997  -32.5319  -41.2972 H         1 UNK         0.3055 
    106 H106       22.5233  -31.1448  -38.7524 H         1 UNK         0.1106 
    107 H107       23.2291  -34.1360  -38.8041 H         1 UNK         0.0828 
    108 H108       24.2293  -32.8601  -38.1108 H         1 UNK         0.0828 
    109 H109       22.6707  -33.2379  -37.3976 H         1 UNK         0.0828 
    110 H110       20.9680  -30.8150  -40.8060 H         1 UNK         0.2931 
    111 H111       18.7895  -32.8424  -40.8130 H         1 UNK         0.0412 
    112 H112       19.4798  -29.5886  -39.6468 H         1 UNK         0.3472 
    113 H113       17.8264  -29.2601  -39.1699 H         1 UNK         0.3472 
    114 H114       18.0844  -31.8377  -42.9477 H         1 UNK         0.0970 
    115 H115       19.3423  -30.6325  -42.8470 H         1 UNK         0.0970 
    116 H116       18.5448  -33.5663  -44.8983 H         1 UNK         0.0612 
    117 H117       20.1206  -33.6330  -45.6537 H         1 UNK         0.0612 
@<TRIPOS>BOND
     1    1    2 1    
     2    1   62 1    
     3    1   63 1    
     4    1   64 1    
     5    2    3 2    
     6    2    4 am   BACKBONE|DICT|INTERRES
     7    4    5 1    
     8    4   65 1    
     9    5    6 1    
    10    5   25 1    
    11    5   66 1    
    12    6    7 1    
    13    6   67 1    
    14    6   68 1    
    15    7    8 1    
    16    8    9 1    
    17    8   69 1    
    18    8   70 1    
    19    9   10 ar   
    20    9   14 ar   
    21   10   11 ar   
    22   10   71 1    
    23   11   12 ar   
    24   11   61 1    
    25   12   13 ar   
    26   12   72 1    
    27   13   14 ar   
    28   13   15 1    
    29   14   73 1    
    30   15   16 1    
    31   15   74 1    
    32   15   75 1    
    33   16   17 1    
    34   17   18 1    
    35   17   76 1    
    36   17   77 1    
    37   18   19 1    
    38   18   27 1    
    39   18   78 1    
    40   19   20 am   BACKBONE|DICT|INTERRES
    41   19   79 1    
    42   20   21 2    
    43   20   22 1    
    44   22   23 1    
    45   22   24 1    
    46   22   80 1    
    47   23   81 1    
    48   23   82 1    
    49   23   83 1    
    50   24   25 am   BACKBONE|DICT|INTERRES
    51   24   84 1    
    52   25   26 2    
    53   27   28 2    
    54   27   29 am   BACKBONE|DICT|INTERRES
    55   29   30 1    
    56   29   85 1    
    57   30   31 1    
    58   30   32 1    
    59   30   86 1    
    60   31   87 1    
    61   31   88 1    
    62   31   89 1    
    63   32   33 2    
    64   32   34 am   BACKBONE|DICT|INTERRES
    65   34   35 1    
    66   34   90 1    
    67   35   36 1    
    68   35   37 1    
    69   35   91 1    
    70   36   92 1    
    71   36   93 1    
    72   36   94 1    
    73   37   38 2    
    74   37   39 am   BACKBONE|DICT|INTERRES
    75   39   40 1    
    76   39   95 1    
    77   40   41 1    
    78   40   42 1    
    79   40   96 1    
    80   41   97 1    
    81   41   98 1    
    82   41   99 1    
    83   42   43 2    
    84   42   44 am   BACKBONE|DICT|INTERRES
    85   44   45 1    
    86   44  100 1    
    87   45   46 1    
    88   45   47 1    
    89   45  101 1    
    90   46  102 1    
    91   46  103 1    
    92   46  104 1    
    93   47   48 2    
    94   47   49 am   BACKBONE|DICT|INTERRES
    95   49   50 1    
    96   49  105 1    
    97   50   51 1    
    98   50   52 1    
    99   50  106 1    
   100   51  107 1    
   101   51  108 1    
   102   51  109 1    
   103   52   53 2    
   104   52   54 am   BACKBONE|DICT|INTERRES
   105   54   55 1    
   106   54  110 1    
   107   55   56 1    
   108   55   59 1    
   109   55  111 1    
   110   56   57 am   BACKBONE|DICT|INTERRES
   111   56   58 2    
   112   57  112 1    
   113   57  113 1    
   114   59   60 1    
   115   59  114 1    
   116   59  115 1    
   117   60   61 1    
   118   61  116 1    
   119   61  117 1    
@<TRIPOS>SUBSTRUCTURE
     1 UNK         1 GROUP             0       ****    0 ROOT    
