@<TRIPOS>MOLECULE
3R8
117   119    1
SMALL
USER_CHARGES


@<TRIPOS>ATOM
      1 CA         14.8820  -25.7686  -40.9036 C.3       0 UNK        -0.2013 
      2 C          15.5481  -25.4358  -42.2304 C.2       0 UNK         0.4866 
      3 O          15.5619  -24.2723  -42.6345 O.2       0 UNK        -0.5176 
      4 N          16.0913  -26.4495  -42.9150 N.am      1 UNK        -0.4884 
      5 CA         16.8255  -26.3120  -44.1782 C.3       1 UNK         0.0853 
      6 C6         17.0210  -27.6784  -44.8808 C.3       10 UNK        -0.0849 
      7 S7         15.4560  -28.5694  -45.1883 S.3       10 UNK        -0.2776 
      8 C8         15.9050  -29.6589  -46.5841 C.3       10 UNK         0.0316 
      9 C9         17.2233  -30.3867  -46.3514 C.ar      10 UNK        -0.0863 
     10 C10        17.3520  -31.2988  -45.2988 C.ar      10 UNK        -0.1009 
     11 C11        18.5820  -31.9091  -45.0371 C.ar      10 UNK        -0.0712 
     12 C12        19.6785  -31.6298  -45.8562 C.ar      10 UNK        -0.0894 
     13 C13        19.5637  -30.7127  -46.9053 C.ar      10 UNK        -0.0745 
     14 C14        18.3308  -30.1056  -47.1580 C.ar      10 UNK        -0.0972 
     15 C15        20.7916  -30.3220  -47.7155 C.3       10 UNK         0.0209 
     16 S16        21.4247  -28.6789  -47.2332 S.3       10 UNK        -0.2568 
     17 C17        21.7078  -28.9117  -45.4445 C.3       10 UNK        -0.0983 
     18 CA         22.0535  -27.6111  -44.6824 C.3       3 UNK         0.0876 
     19 N          21.0749  -26.5528  -44.9375 N.am      3 UNK        -0.4424 
     20 C          21.2438  -25.2524  -44.6682 C.2       2 UNK         0.4918 
     21 O          22.2770  -24.7810  -44.1934 O.2       2 UNK        -0.4875 
     22 CA         20.0494  -24.3200  -44.9600 C.3       2 UNK         0.0481 
     23 CB         20.2615  -23.5878  -46.2946 C.3       2 UNK        -0.1831 
     24 N          18.7383  -24.9875  -44.9780 N.am      2 UNK        -0.4498 
     25 C          18.1996  -25.6504  -43.9435 C.2       1 UNK         0.5027 
     26 O          18.7799  -25.8067  -42.8664 O.2       1 UNK        -0.4969 
     27 C          22.2102  -27.9481  -43.1837 C.2       3 UNK         0.5005 
     28 O          23.1944  -28.6050  -42.8355 O.2       3 UNK        -0.5279 
     29 N          21.2602  -27.5428  -42.3218 N.am      4 UNK        -0.4463 
     30 CA         21.1586  -27.9058  -40.8982 C.3       4 UNK         0.0283 
     31 CB         19.7330  -27.6115  -40.3991 C.3       4 UNK        -0.1875 
     32 C          22.2411  -27.2833  -39.9858 C.2       4 UNK         0.4949 
     33 O          21.9393  -26.7923  -38.8977 O.2       4 UNK        -0.5039 
     34 N          23.4924  -27.3577  -40.4376 N.am      5 UNK        -0.4663 
     35 CA         24.7184  -27.0104  -39.7266 C.3       5 UNK         0.0242 
     36 CB         24.9993  -25.5008  -39.8285 C.3       5 UNK        -0.1982 
     37 C          25.8763  -27.8432  -40.2916 C.2       5 UNK         0.5017 
     38 O          26.6420  -28.4166  -39.5178 O.2       5 UNK        -0.5012 
     39 N          25.9543  -27.9285  -41.6292 N.am      6 UNK        -0.4439 
     40 CA         26.8902  -28.7848  -42.3610 C.3       6 UNK         0.0297 
     41 CB         26.9960  -28.3052  -43.8185 C.3       6 UNK        -0.2006 
     42 C          26.4768  -30.2647  -42.2998 C.2       6 UNK         0.4892 
     43 O          27.3037  -31.1118  -41.9611 O.2       6 UNK        -0.5089 
     44 N          25.2019  -30.5412  -42.6092 N.am      7 UNK        -0.4243 
     45 CA         24.5808  -31.8604  -42.4695 C.3       7 UNK         0.0196 
     46 CB         23.3969  -31.9770  -43.4460 C.3       7 UNK        -0.2007 
     47 C          24.1070  -32.1066  -41.0291 C.2       7 UNK         0.5020 
     48 O          24.1121  -33.2523  -40.5803 O.2       7 UNK        -0.5147 
     49 N          23.6998  -31.0249  -40.3443 N.am      8 UNK        -0.4734 
     50 CA         23.2135  -30.9697  -38.9563 C.3       8 UNK         0.0238 
     51 CB         24.3459  -31.3278  -37.9710 C.3       8 UNK        -0.1912 
     52 C          21.9252  -31.7828  -38.7033 C.2       8 UNK         0.5038 
     53 O          21.6584  -32.1633  -37.5618 O.2       8 UNK        -0.5046 
     54 N          21.1512  -32.0304  -39.7668 N.am      9 UNK        -0.4200 
     55 CA         19.8555  -32.7185  -39.7403 C.3       9 UNK         0.0839 
     56 C          18.7304  -31.8940  -39.0523 C.2       9 UNK         0.5513 
     57 N          17.6679  -32.5532  -38.6097 N.am      9 UNK        -0.7519 
     58 O          18.7972  -30.6725  -38.9321 O.2       9 UNK        -0.4960 
     59 C59        19.4551  -33.2110  -41.1571 C.3       10 UNK        -0.0876 
     60 S60        19.4046  -31.8923  -42.4185 S.3       10 UNK        -0.2414 
     61 C61        18.7467  -32.8234  -43.8356 C.3       10 UNK         0.0169 
     62 H62        13.8331  -25.4741  -40.9254 H         1 UNK         0.0903 
     63 H63        14.9306  -26.8340  -40.6786 H         1 UNK         0.0903 
     64 H64        15.3714  -25.2288  -40.0933 H         1 UNK         0.0903 
     65 H65        16.0533  -27.3851  -42.5370 H         1 UNK         0.3096 
     66 H66        16.2424  -25.6620  -44.8348 H         1 UNK         0.1121 
     67 H67        17.6671  -28.3297  -44.2873 H         1 UNK         0.0849 
     68 H68        17.5262  -27.5371  -45.8382 H         1 UNK         0.0849 
     69 H69        15.1104  -30.3908  -46.7358 H         1 UNK         0.0865 
     70 H70        15.9479  -29.0617  -47.4963 H         1 UNK         0.0865 
     71 H71        16.5047  -31.4975  -44.6564 H         1 UNK         0.1346 
     72 H72        20.6360  -32.0836  -45.6389 H         1 UNK         0.1412 
     73 H73        18.2493  -29.3821  -47.9579 H         1 UNK         0.1426 
     74 H74        20.5414  -30.3108  -48.7773 H         1 UNK         0.0716 
     75 H75        21.5857  -31.0606  -47.5944 H         1 UNK         0.0716 
     76 H76        22.5032  -29.6503  -45.3270 H         1 UNK         0.0695 
     77 H77        20.8120  -29.3492  -45.0025 H         1 UNK         0.0695 
     78 H78        23.0259  -27.2587  -45.0332 H         1 UNK         0.0983 
     79 H79        20.2100  -26.8461  -45.3650 H         1 UNK         0.3095 
     80 H80        20.0230  -23.5735  -44.1636 H         1 UNK         0.0454 
     81 H81        20.2698  -24.2791  -47.1382 H         1 UNK         0.0851 
     82 H82        21.2141  -23.0559  -46.3013 H         1 UNK         0.0851 
     83 H83        19.4809  -22.8479  -46.4720 H         1 UNK         0.0851 
     84 H84        18.2107  -24.9116  -45.8364 H         1 UNK         0.2976 
     85 H85        20.5060  -26.9631  -42.6757 H         1 UNK         0.3116 
     86 H86        21.2954  -28.9872  -40.8353 H         1 UNK         0.0646 
     87 H87        18.9836  -28.1011  -41.0215 H         1 UNK         0.0847 
     88 H88        19.5214  -26.5418  -40.3930 H         1 UNK         0.0847 
     89 H89        19.5900  -27.9781  -39.3817 H         1 UNK         0.0847 
     90 H90        23.6022  -27.8023  -41.3473 H         1 UNK         0.3040 
     91 H91        24.6026  -27.2777  -38.6735 H         1 UNK         0.1015 
     92 H92        25.0837  -25.1723  -40.8650 H         1 UNK         0.0786 
     93 H93        25.9315  -25.2426  -39.3244 H         1 UNK         0.0786 
     94 H94        24.2058  -24.9194  -39.3587 H         1 UNK         0.0786 
     95 H95        25.2994  -27.4014  -42.1882 H         1 UNK         0.3172 
     96 H96        27.8768  -28.6904  -41.9018 H         1 UNK         0.0595 
     97 H97        26.0346  -28.3416  -44.3327 H         1 UNK         0.0839 
     98 H98        27.6908  -28.9285  -44.3833 H         1 UNK         0.0839 
     99 H99        27.3661  -27.2812  -43.8724 H         1 UNK         0.0839 
    100 H100       24.5796  -29.7771  -42.8638 H         1 UNK         0.2998 
    101 H101       25.3122  -32.6313  -42.7225 H         1 UNK         0.0822 
    102 H102       23.7179  -31.8291  -44.4771 H         1 UNK         0.0787 
    103 H103       22.9400  -32.9659  -43.3877 H         1 UNK         0.0787 
    104 H104       22.6152  -31.2475  -43.2305 H         1 UNK         0.0787 
    105 H105       23.7305  -30.1438  -40.8359 H         1 UNK         0.3055 
    106 H106       22.9410  -29.9312  -38.7658 H         1 UNK         0.1106 
    107 H107       24.6303  -32.3778  -38.0452 H         1 UNK         0.0828 
    108 H108       24.0421  -31.1462  -36.9393 H         1 UNK         0.0828 
    109 H109       25.2357  -30.7251  -38.1546 H         1 UNK         0.0828 
    110 H110       21.4319  -31.6667  -40.6644 H         1 UNK         0.2931 
    111 H111       19.9972  -33.6098  -39.1254 H         1 UNK         0.0412 
    112 H112       16.9230  -32.0375  -38.1675 H         1 UNK         0.3472 
    113 H113       17.5984  -33.5552  -38.6984 H         1 UNK         0.3472 
    114 H114       18.4875  -33.7155  -41.1291 H         1 UNK         0.0970 
    115 H115       20.1693  -33.9659  -41.4902 H         1 UNK         0.0970 
    116 H116       19.4227  -33.6447  -44.0789 H         1 UNK         0.0612 
    117 H117       17.7897  -33.2727  -43.5657 H         1 UNK         0.0612 
@<TRIPOS>BOND
     1    1    2 1    
     2    1   62 1    
     3    1   63 1    
     4    1   64 1    
     5    2    3 2    
     6    2    4 am   BACKBONE|DICT|INTERRES
     7    4    5 1    
     8    4   65 1    
     9    5    6 1    
    10    5   25 1    
    11    5   66 1    
    12    6    7 1    
    13    6   67 1    
    14    6   68 1    
    15    7    8 1    
    16    8    9 1    
    17    8   69 1    
    18    8   70 1    
    19    9   10 ar   
    20    9   14 ar   
    21   10   11 ar   
    22   10   71 1    
    23   11   12 ar   
    24   11   61 1    
    25   12   13 ar   
    26   12   72 1    
    27   13   14 ar   
    28   13   15 1    
    29   14   73 1    
    30   15   16 1    
    31   15   74 1    
    32   15   75 1    
    33   16   17 1    
    34   17   18 1    
    35   17   76 1    
    36   17   77 1    
    37   18   19 1    
    38   18   27 1    
    39   18   78 1    
    40   19   20 am   BACKBONE|DICT|INTERRES
    41   19   79 1    
    42   20   21 2    
    43   20   22 1    
    44   22   23 1    
    45   22   24 1    
    46   22   80 1    
    47   23   81 1    
    48   23   82 1    
    49   23   83 1    
    50   24   25 am   BACKBONE|DICT|INTERRES
    51   24   84 1    
    52   25   26 2    
    53   27   28 2    
    54   27   29 am   BACKBONE|DICT|INTERRES
    55   29   30 1    
    56   29   85 1    
    57   30   31 1    
    58   30   32 1    
    59   30   86 1    
    60   31   87 1    
    61   31   88 1    
    62   31   89 1    
    63   32   33 2    
    64   32   34 am   BACKBONE|DICT|INTERRES
    65   34   35 1    
    66   34   90 1    
    67   35   36 1    
    68   35   37 1    
    69   35   91 1    
    70   36   92 1    
    71   36   93 1    
    72   36   94 1    
    73   37   38 2    
    74   37   39 am   BACKBONE|DICT|INTERRES
    75   39   40 1    
    76   39   95 1    
    77   40   41 1    
    78   40   42 1    
    79   40   96 1    
    80   41   97 1    
    81   41   98 1    
    82   41   99 1    
    83   42   43 2    
    84   42   44 am   BACKBONE|DICT|INTERRES
    85   44   45 1    
    86   44  100 1    
    87   45   46 1    
    88   45   47 1    
    89   45  101 1    
    90   46  102 1    
    91   46  103 1    
    92   46  104 1    
    93   47   48 2    
    94   47   49 am   BACKBONE|DICT|INTERRES
    95   49   50 1    
    96   49  105 1    
    97   50   51 1    
    98   50   52 1    
    99   50  106 1    
   100   51  107 1    
   101   51  108 1    
   102   51  109 1    
   103   52   53 2    
   104   52   54 am   BACKBONE|DICT|INTERRES
   105   54   55 1    
   106   54  110 1    
   107   55   56 1    
   108   55   59 1    
   109   55  111 1    
   110   56   57 am   BACKBONE|DICT|INTERRES
   111   56   58 2    
   112   57  112 1    
   113   57  113 1    
   114   59   60 1    
   115   59  114 1    
   116   59  115 1    
   117   60   61 1    
   118   61  116 1    
   119   61  117 1    
@<TRIPOS>SUBSTRUCTURE
     1 UNK         1 GROUP             0       ****    0 ROOT    
