@<TRIPOS>MOLECULE
3R8
117   119    1
SMALL
USER_CHARGES


@<TRIPOS>ATOM
      1 CA         17.2186  -21.8789  -46.2683 C.3       0 UNK        -0.2013 
      2 C          18.0490  -23.1076  -46.6073 C.2       0 UNK         0.4866 
      3 O          19.1256  -22.9770  -47.1897 O.2       0 UNK        -0.5176 
      4 N          17.5602  -24.3015  -46.2436 N.am      1 UNK        -0.4884 
      5 CA         18.2252  -25.5896  -46.4957 C.3       1 UNK         0.0853 
      6 C6         17.1977  -26.7538  -46.5246 C.3       10 UNK        -0.0849 
      7 S7         17.6409  -28.0243  -47.7547 S.3       10 UNK        -0.2776 
      8 C8         16.5465  -29.3949  -47.2707 C.3       10 UNK         0.0316 
      9 C9         17.0389  -30.1187  -46.0246 C.ar      10 UNK        -0.0863 
     10 C10        18.1759  -30.9294  -46.0909 C.ar      10 UNK        -0.1009 
     11 C11        18.6057  -31.6452  -44.9703 C.ar      10 UNK        -0.0712 
     12 C12        17.8833  -31.5516  -43.7759 C.ar      10 UNK        -0.0894 
     13 C13        16.7471  -30.7396  -43.6939 C.ar      10 UNK        -0.0745 
     14 C14        16.3340  -30.0207  -44.8208 C.ar      10 UNK        -0.0972 
     15 C15        15.9282  -30.6831  -42.4091 C.3       10 UNK         0.0209 
     16 S16        16.8668  -30.0549  -40.9793 S.3       10 UNK        -0.2568 
     17 C17        17.2089  -28.3302  -41.4617 C.3       10 UNK        -0.0983 
     18 CA         18.7214  -28.0082  -41.3865 C.3       3 UNK         0.0876 
     19 N          19.0752  -26.8932  -42.2639 N.am      3 UNK        -0.4424 
     20 C          20.3276  -26.5108  -42.5471 C.2       2 UNK         0.4918 
     21 O          21.3322  -27.1353  -42.1950 O.2       2 UNK        -0.4875 
     22 CA         20.4548  -25.1917  -43.3345 C.3       2 UNK         0.0481 
     23 CB         21.8852  -24.9059  -43.8349 C.3       2 UNK        -0.1831 
     24 N          19.4780  -25.0886  -44.4268 N.am      2 UNK        -0.4498 
     25 C          19.3861  -25.8757  -45.5128 C.2       1 UNK         0.5027 
     26 O          20.1655  -26.7975  -45.7544 O.2       1 UNK        -0.4969 
     27 C          19.1745  -27.7001  -39.9429 C.2       3 UNK         0.5005 
     28 O          18.9942  -26.5703  -39.4795 O.2       3 UNK        -0.5279 
     29 N          19.7720  -28.6997  -39.2816 N.am      4 UNK        -0.4463 
     30 CA         20.4309  -28.6341  -37.9725 C.3       4 UNK         0.0283 
     31 CB         19.4170  -28.3177  -36.8519 C.3       4 UNK        -0.1875 
     32 C          21.6604  -27.7005  -37.9562 C.2       4 UNK         0.4949 
     33 O          21.9766  -27.1332  -36.9090 O.2       4 UNK        -0.5039 
     34 N          22.3402  -27.5628  -39.1041 N.am      5 UNK        -0.4663 
     35 CA         23.5236  -26.7173  -39.2647 C.3       5 UNK         0.0242 
     36 CB         23.1115  -25.2828  -39.6429 C.3       5 UNK        -0.1982 
     37 C          24.5139  -27.3054  -40.2764 C.2       5 UNK         0.5017 
     38 O          25.6921  -27.4467  -39.9439 O.2       5 UNK        -0.5012 
     39 N          24.0435  -27.6338  -41.4889 N.am      6 UNK        -0.4439 
     40 CA         24.8732  -28.1287  -42.5931 C.3       6 UNK         0.0297 
     41 CB         24.1719  -27.8503  -43.9344 C.3       6 UNK        -0.2006 
     42 C          25.2758  -29.6061  -42.4322 C.2       6 UNK         0.4892 
     43 O          24.7898  -30.4613  -43.1752 O.2       6 UNK        -0.5089 
     44 N          26.1758  -29.8640  -41.4724 N.am      7 UNK        -0.4243 
     45 CA         26.8539  -31.1344  -41.1892 C.3       7 UNK         0.0196 
     46 CB         27.9250  -31.4126  -42.2685 C.3       7 UNK        -0.2007 
     47 C          25.8619  -32.2936  -40.9868 C.2       7 UNK         0.5020 
     48 O          25.2053  -32.3462  -39.9467 O.2       7 UNK        -0.5147 
     49 N          25.7426  -33.1765  -41.9884 N.am      8 UNK        -0.4734 
     50 CA         24.8107  -34.3081  -42.0238 C.3       8 UNK         0.0238 
     51 CB         25.0752  -35.1399  -43.2893 C.3       8 UNK        -0.1912 
     52 C          23.3258  -33.9067  -41.9459 C.2       8 UNK         0.5038 
     53 O          22.5191  -34.7127  -41.4800 O.2       8 UNK        -0.5046 
     54 N          22.9940  -32.6807  -42.3738 N.am      9 UNK        -0.4200 
     55 CA         21.6657  -32.0787  -42.1933 C.3       9 UNK         0.0839 
     56 C          21.4104  -31.5349  -40.7607 C.2       9 UNK         0.5513 
     57 N          22.3837  -31.4981  -39.8578 N.am      9 UNK        -0.7519 
     58 O          20.2896  -31.1386  -40.4591 O.2       9 UNK        -0.4960 
     59 C59        21.3575  -30.9951  -43.2588 C.3       10 UNK        -0.0876 
     60 S60        21.3978  -31.6332  -44.9669 S.3       10 UNK        -0.2414 
     61 C61        19.8258  -32.5510  -45.0676 C.3       10 UNK         0.0169 
     62 H62        17.7862  -21.2082  -45.6237 H         1 UNK         0.0903 
     63 H63        16.9606  -21.3385  -47.1786 H         1 UNK         0.0903 
     64 H64        16.2928  -22.1394  -45.7556 H         1 UNK         0.0903 
     65 H65        16.6671  -24.3486  -45.7720 H         1 UNK         0.3096 
     66 H66        18.6844  -25.5156  -47.4847 H         1 UNK         0.1121 
     67 H67        16.2095  -26.3860  -46.8061 H         1 UNK         0.0849 
     68 H68        17.0754  -27.2093  -45.5397 H         1 UNK         0.0849 
     69 H69        15.5311  -29.0196  -47.1330 H         1 UNK         0.0865 
     70 H70        16.4943  -30.1076  -48.0951 H         1 UNK         0.0865 
     71 H71        18.7236  -31.0094  -47.0202 H         1 UNK         0.1346 
     72 H72        18.1999  -32.1144  -42.9080 H         1 UNK         0.1412 
     73 H73        15.4466  -29.4045  -44.7687 H         1 UNK         0.1426 
     74 H74        15.5737  -31.6882  -42.1770 H         1 UNK         0.0716 
     75 H75        15.0356  -30.0692  -42.5401 H         1 UNK         0.0716 
     76 H76        16.6200  -27.6562  -40.8362 H         1 UNK         0.0695 
     77 H77        16.8466  -28.1797  -42.4796 H         1 UNK         0.0695 
     78 H78        19.2797  -28.8725  -41.7523 H         1 UNK         0.0983 
     79 H79        18.3157  -26.3004  -42.5613 H         1 UNK         0.3095 
     80 H80        20.2014  -24.4024  -42.6254 H         1 UNK         0.0454 
     81 H81        22.2040  -25.6335  -44.5796 H         1 UNK         0.0851 
     82 H82        22.6061  -24.9356  -43.0174 H         1 UNK         0.0851 
     83 H83        21.9530  -23.9173  -44.2883 H         1 UNK         0.0851 
     84 H84        18.7928  -24.3513  -44.3377 H         1 UNK         0.2976 
     85 H85        19.8506  -29.6042  -39.7508 H         1 UNK         0.3116 
     86 H86        20.8163  -29.6368  -37.7848 H         1 UNK         0.0646 
     87 H87        19.0447  -27.2951  -36.9173 H         1 UNK         0.0847 
     88 H88        19.8735  -28.4324  -35.8681 H         1 UNK         0.0847 
     89 H89        18.5604  -28.9904  -36.8900 H         1 UNK         0.0847 
     90 H90        22.0248  -28.0679  -39.9208 H         1 UNK         0.3040 
     91 H91        24.0574  -26.6713  -38.3123 H         1 UNK         0.1015 
     92 H92        22.5099  -25.2590  -40.5510 H         1 UNK         0.0786 
     93 H93        23.9869  -24.6540  -39.8111 H         1 UNK         0.0786 
     94 H94        22.5279  -24.8188  -38.8476 H         1 UNK         0.0786 
     95 H95        23.0608  -27.4716  -41.7037 H         1 UNK         0.3172 
     96 H96        25.8030  -27.5556  -42.6063 H         1 UNK         0.0595 
     97 H97        24.7178  -28.2972  -44.7665 H         1 UNK         0.0839 
     98 H98        24.1260  -26.7805  -44.1287 H         1 UNK         0.0839 
     99 H99        23.1566  -28.2456  -43.9609 H         1 UNK         0.0839 
    100 H100       26.4145  -29.0889  -40.8610 H         1 UNK         0.2998 
    101 H101       27.3702  -31.0069  -40.2364 H         1 UNK         0.0822 
    102 H102       28.4463  -32.3515  -42.0758 H         1 UNK         0.0787 
    103 H103       27.5007  -31.4648  -43.2719 H         1 UNK         0.0787 
    104 H104       28.6804  -30.6267  -42.2762 H         1 UNK         0.0787 
    105 H105       26.2982  -33.0222  -42.8175 H         1 UNK         0.3055 
    106 H106       25.0184  -34.9313  -41.1512 H         1 UNK         0.1106 
    107 H107       24.4157  -36.0081  -43.3306 H         1 UNK         0.0828 
    108 H108       24.9049  -34.5587  -44.1966 H         1 UNK         0.0828 
    109 H109       26.0992  -35.5129  -43.3143 H         1 UNK         0.0828 
    110 H110       23.7178  -32.0641  -42.7318 H         1 UNK         0.2931 
    111 H111       20.9271  -32.8708  -42.3232 H         1 UNK         0.0412 
    112 H112       23.3155  -31.8406  -40.0685 H         1 UNK         0.3472 
    113 H113       22.1798  -31.1752  -38.9274 H         1 UNK         0.3472 
    114 H114       22.0783  -30.1808  -43.1822 H         1 UNK         0.0970 
    115 H115       20.3831  -30.5370  -43.0878 H         1 UNK         0.0970 
    116 H116       19.8001  -33.0850  -46.0186 H         1 UNK         0.0612 
    117 H117       19.7980  -33.3198  -44.2949 H         1 UNK         0.0612 
@<TRIPOS>BOND
     1    1    2 1    
     2    1   62 1    
     3    1   63 1    
     4    1   64 1    
     5    2    3 2    
     6    2    4 am   BACKBONE|DICT|INTERRES
     7    4    5 1    
     8    4   65 1    
     9    5    6 1    
    10    5   25 1    
    11    5   66 1    
    12    6    7 1    
    13    6   67 1    
    14    6   68 1    
    15    7    8 1    
    16    8    9 1    
    17    8   69 1    
    18    8   70 1    
    19    9   10 ar   
    20    9   14 ar   
    21   10   11 ar   
    22   10   71 1    
    23   11   12 ar   
    24   11   61 1    
    25   12   13 ar   
    26   12   72 1    
    27   13   14 ar   
    28   13   15 1    
    29   14   73 1    
    30   15   16 1    
    31   15   74 1    
    32   15   75 1    
    33   16   17 1    
    34   17   18 1    
    35   17   76 1    
    36   17   77 1    
    37   18   19 1    
    38   18   27 1    
    39   18   78 1    
    40   19   20 am   BACKBONE|DICT|INTERRES
    41   19   79 1    
    42   20   21 2    
    43   20   22 1    
    44   22   23 1    
    45   22   24 1    
    46   22   80 1    
    47   23   81 1    
    48   23   82 1    
    49   23   83 1    
    50   24   25 am   BACKBONE|DICT|INTERRES
    51   24   84 1    
    52   25   26 2    
    53   27   28 2    
    54   27   29 am   BACKBONE|DICT|INTERRES
    55   29   30 1    
    56   29   85 1    
    57   30   31 1    
    58   30   32 1    
    59   30   86 1    
    60   31   87 1    
    61   31   88 1    
    62   31   89 1    
    63   32   33 2    
    64   32   34 am   BACKBONE|DICT|INTERRES
    65   34   35 1    
    66   34   90 1    
    67   35   36 1    
    68   35   37 1    
    69   35   91 1    
    70   36   92 1    
    71   36   93 1    
    72   36   94 1    
    73   37   38 2    
    74   37   39 am   BACKBONE|DICT|INTERRES
    75   39   40 1    
    76   39   95 1    
    77   40   41 1    
    78   40   42 1    
    79   40   96 1    
    80   41   97 1    
    81   41   98 1    
    82   41   99 1    
    83   42   43 2    
    84   42   44 am   BACKBONE|DICT|INTERRES
    85   44   45 1    
    86   44  100 1    
    87   45   46 1    
    88   45   47 1    
    89   45  101 1    
    90   46  102 1    
    91   46  103 1    
    92   46  104 1    
    93   47   48 2    
    94   47   49 am   BACKBONE|DICT|INTERRES
    95   49   50 1    
    96   49  105 1    
    97   50   51 1    
    98   50   52 1    
    99   50  106 1    
   100   51  107 1    
   101   51  108 1    
   102   51  109 1    
   103   52   53 2    
   104   52   54 am   BACKBONE|DICT|INTERRES
   105   54   55 1    
   106   54  110 1    
   107   55   56 1    
   108   55   59 1    
   109   55  111 1    
   110   56   57 am   BACKBONE|DICT|INTERRES
   111   56   58 2    
   112   57  112 1    
   113   57  113 1    
   114   59   60 1    
   115   59  114 1    
   116   59  115 1    
   117   60   61 1    
   118   61  116 1    
   119   61  117 1    
@<TRIPOS>SUBSTRUCTURE
     1 UNK         1 GROUP             0       ****    0 ROOT    
