@<TRIPOS>MOLECULE
3R8
117   119    1
SMALL
USER_CHARGES


@<TRIPOS>ATOM
      1 CA         13.6863  -30.4081  -45.5193 C.3       0 UNK        -0.2013 
      2 C          14.2354  -30.8645  -44.1708 C.2       0 UNK         0.4866 
      3 O          13.6004  -31.7005  -43.5300 O.2       0 UNK        -0.5176 
      4 N          15.3782  -30.3676  -43.6744 N.am      1 UNK        -0.4884 
      5 CA         16.3589  -29.4262  -44.2394 C.3       1 UNK         0.0853 
      6 C6         15.7913  -28.0796  -44.7646 C.3       10 UNK        -0.0849 
      7 S7         14.8709  -27.2009  -43.4537 S.3       10 UNK        -0.2776 
      8 C8         15.6418  -25.5490  -43.4426 C.3       10 UNK         0.0316 
      9 C9         17.1419  -25.5760  -43.1704 C.ar      10 UNK        -0.0863 
     10 C10        17.6451  -26.0727  -41.9627 C.ar      10 UNK        -0.1009 
     11 C11        19.0208  -26.0517  -41.7072 C.ar      10 UNK        -0.0712 
     12 C12        19.8911  -25.5132  -42.6584 C.ar      10 UNK        -0.0894 
     13 C13        19.4032  -25.0380  -43.8768 C.ar      10 UNK        -0.0745 
     14 C14        18.0283  -25.0681  -44.1249 C.ar      10 UNK        -0.0972 
     15 C15        20.3512  -24.4914  -44.9314 C.3       10 UNK         0.0209 
     16 S16        20.6617  -25.7340  -46.2228 S.3       10 UNK        -0.2568 
     17 C17        22.2481  -26.4744  -45.7002 C.3       10 UNK        -0.0983 
     18 CA         22.1452  -27.6158  -44.6444 C.3       3 UNK         0.0876 
     19 N          21.0856  -28.6032  -44.9006 N.am      3 UNK        -0.4424 
     20 C          20.9027  -29.3272  -46.0163 C.2       2 UNK         0.4918 
     21 O          21.6656  -29.3143  -46.9812 O.2       2 UNK        -0.4875 
     22 CA         19.6611  -30.2291  -46.0591 C.3       2 UNK         0.0481 
     23 CB         20.0335  -31.6500  -45.5856 C.3       2 UNK        -0.1831 
     24 N          18.5647  -29.6675  -45.2604 N.am      2 UNK        -0.4498 
     25 C          17.3060  -30.1232  -45.2369 C.2       1 UNK         0.5027 
     26 O          16.9035  -31.0533  -45.9389 O.2       1 UNK        -0.4969 
     27 C          23.5324  -28.2390  -44.3665 C.2       3 UNK         0.5005 
     28 O          24.4884  -27.4876  -44.1654 O.2       3 UNK        -0.5279 
     29 N          23.6349  -29.5772  -44.3366 N.am      4 UNK        -0.4463 
     30 CA         24.8658  -30.3445  -44.1248 C.3       4 UNK         0.0283 
     31 CB         24.5520  -31.8442  -44.2298 C.3       4 UNK        -0.1875 
     32 C          25.5422  -29.9950  -42.7887 C.2       4 UNK         0.4949 
     33 O          24.9955  -30.2973  -41.7249 O.2       4 UNK        -0.5039 
     34 N          26.6733  -29.2792  -42.8825 N.am      5 UNK        -0.4663 
     35 CA         27.4505  -28.6765  -41.7870 C.3       5 UNK         0.0242 
     36 CB         28.0963  -29.7810  -40.9230 C.3       5 UNK        -0.1982 
     37 C          26.6577  -27.6660  -40.9268 C.2       5 UNK         0.5017 
     38 O          27.1000  -27.3402  -39.8242 O.2       5 UNK        -0.5012 
     39 N          25.4898  -27.2220  -41.4232 N.am      6 UNK        -0.4439 
     40 CA         24.4341  -26.4890  -40.7132 C.3       6 UNK         0.0297 
     41 CB         24.8642  -25.0288  -40.4641 C.3       6 UNK        -0.2006 
     42 C          23.9531  -27.2025  -39.4281 C.2       6 UNK         0.4892 
     43 O          23.5754  -26.5292  -38.4671 O.2       6 UNK        -0.5089 
     44 N          23.9972  -28.5436  -39.4233 N.am      7 UNK        -0.4243 
     45 CA         23.7197  -29.3758  -38.2525 C.3       7 UNK         0.0196 
     46 CB         25.0415  -29.7560  -37.5632 C.3       7 UNK        -0.2007 
     47 C          22.9131  -30.6244  -38.6189 C.2       7 UNK         0.5020 
     48 O          21.9172  -30.9126  -37.9548 O.2       7 UNK        -0.5147 
     49 N          23.3179  -31.3392  -39.6773 N.am      8 UNK        -0.4734 
     50 CA         22.6484  -32.5470  -40.1703 C.3       8 UNK         0.0238 
     51 CB         23.7017  -33.5036  -40.7588 C.3       8 UNK        -0.1912 
     52 C          21.5267  -32.1837  -41.1601 C.2       8 UNK         0.5038 
     53 O          21.4890  -32.6906  -42.2821 O.2       8 UNK        -0.5046 
     54 N          20.6376  -31.2889  -40.7191 N.am      9 UNK        -0.4200 
     55 CA         19.5178  -30.6947  -41.4634 C.3       9 UNK         0.0839 
     56 C          18.3249  -31.6706  -41.6976 C.2       9 UNK         0.5513 
     57 N          18.5747  -32.9237  -42.0478 N.am      9 UNK        -0.7519 
     58 O          17.1632  -31.2925  -41.5713 O.2       9 UNK        -0.4960 
     59 C59        19.0867  -29.3481  -40.8198 C.3       10 UNK        -0.0876 
     60 S60        20.4717  -28.1667  -40.6798 S.3       10 UNK        -0.2414 
     61 C61        19.5822  -26.6033  -40.4064 C.3       10 UNK         0.0169 
     62 H62        13.1714  -29.4538  -45.4133 H         1 UNK         0.0903 
     63 H63        14.4646  -30.3120  -46.2730 H         1 UNK         0.0903 
     64 H64        12.9644  -31.1323  -45.8961 H         1 UNK         0.0903 
     65 H65        15.6963  -30.7585  -42.7920 H         1 UNK         0.3096 
     66 H66        16.9818  -29.1716  -43.3813 H         1 UNK         0.1121 
     67 H67        15.1477  -28.2068  -45.6328 H         1 UNK         0.0849 
     68 H68        16.6061  -27.4439  -45.1137 H         1 UNK         0.0849 
     69 H69        15.4272  -25.0589  -44.3936 H         1 UNK         0.0865 
     70 H70        15.1576  -24.9428  -42.6757 H         1 UNK         0.0865 
     71 H71        16.9637  -26.4728  -41.2241 H         1 UNK         0.1346 
     72 H72        20.9513  -25.4776  -42.4500 H         1 UNK         0.1412 
     73 H73        17.6513  -24.6892  -45.0654 H         1 UNK         0.1426 
     74 H74        21.2886  -24.1589  -44.4831 H         1 UNK         0.0716 
     75 H75        19.9072  -23.6087  -45.3942 H         1 UNK         0.0716 
     76 H76        22.8969  -25.6761  -45.3352 H         1 UNK         0.0695 
     77 H77        22.7312  -26.8486  -46.6046 H         1 UNK         0.0695 
     78 H78        21.8703  -27.1526  -43.6987 H         1 UNK         0.0983 
     79 H79        20.4512  -28.7367  -44.1293 H         1 UNK         0.3095 
     80 H80        19.3312  -30.2790  -47.0988 H         1 UNK         0.0454 
     81 H81        20.3117  -31.6679  -44.5323 H         1 UNK         0.0851 
     82 H82        20.8805  -32.0413  -46.1510 H         1 UNK         0.0851 
     83 H83        19.2127  -32.3531  -45.7233 H         1 UNK         0.0851 
     84 H84        18.7775  -28.8194  -44.7556 H         1 UNK         0.2976 
     85 H85        22.7956  -30.1145  -44.4907 H         1 UNK         0.3116 
     86 H86        25.5522  -30.0943  -44.9364 H         1 UNK         0.0646 
     87 H87        24.2571  -32.1158  -45.2434 H         1 UNK         0.0847 
     88 H88        25.4222  -32.4497  -43.9727 H         1 UNK         0.0847 
     89 H89        23.7410  -32.1322  -43.5630 H         1 UNK         0.0847 
     90 H90        26.9965  -29.0438  -43.8117 H         1 UNK         0.3040 
     91 H91        28.2538  -28.1051  -42.2549 H         1 UNK         0.1015 
     92 H92        27.3496  -30.3479  -40.3660 H         1 UNK         0.0786 
     93 H93        28.7899  -29.3572  -40.1956 H         1 UNK         0.0786 
     94 H94        28.6626  -30.4832  -41.5346 H         1 UNK         0.0786 
     95 H95        25.2535  -27.5009  -42.3727 H         1 UNK         0.3172 
     96 H96        23.5745  -26.4706  -41.3848 H         1 UNK         0.0595 
     97 H97        25.6913  -24.9676  -39.7561 H         1 UNK         0.0839 
     98 H98        24.0412  -24.4414  -40.0552 H         1 UNK         0.0839 
     99 H99        25.1770  -24.5443  -41.3890 H         1 UNK         0.0839 
    100 H100       24.2996  -29.0242  -40.2642 H         1 UNK         0.2998 
    101 H101       23.1128  -28.8150  -37.5380 H         1 UNK         0.0822 
    102 H102       24.8625  -30.3879  -36.6923 H         1 UNK         0.0787 
    103 H103       25.7051  -30.3015  -38.2355 H         1 UNK         0.0787 
    104 H104       25.5747  -28.8698  -37.2182 H         1 UNK         0.0787 
    105 H105       24.0917  -31.0048  -40.2471 H         1 UNK         0.3055 
    106 H106       22.1702  -33.0680  -39.3375 H         1 UNK         0.1106 
    107 H107       23.2360  -34.3929  -41.1857 H         1 UNK         0.0828 
    108 H108       24.2899  -33.0296  -41.5426 H         1 UNK         0.0828 
    109 H109       24.3947  -33.8424  -39.9889 H         1 UNK         0.0828 
    110 H110       20.7603  -30.9504  -39.7728 H         1 UNK         0.2931 
    111 H111       19.8878  -30.4560  -42.4613 H         1 UNK         0.0412 
    112 H112       17.8130  -33.5651  -42.2015 H         1 UNK         0.3472 
    113 H113       19.5338  -33.2147  -42.1957 H         1 UNK         0.3472 
    114 H114       18.2946  -28.8819  -41.4063 H         1 UNK         0.0970 
    115 H115       18.6698  -29.5156  -39.8250 H         1 UNK         0.0970 
    116 H116       18.7939  -26.7528  -39.6669 H         1 UNK         0.0612 
    117 H117       20.2742  -25.8774  -39.9768 H         1 UNK         0.0612 
@<TRIPOS>BOND
     1    1    2 1    
     2    1   62 1    
     3    1   63 1    
     4    1   64 1    
     5    2    3 2    
     6    2    4 am   BACKBONE|DICT|INTERRES
     7    4    5 1    
     8    4   65 1    
     9    5    6 1    
    10    5   25 1    
    11    5   66 1    
    12    6    7 1    
    13    6   67 1    
    14    6   68 1    
    15    7    8 1    
    16    8    9 1    
    17    8   69 1    
    18    8   70 1    
    19    9   10 ar   
    20    9   14 ar   
    21   10   11 ar   
    22   10   71 1    
    23   11   12 ar   
    24   11   61 1    
    25   12   13 ar   
    26   12   72 1    
    27   13   14 ar   
    28   13   15 1    
    29   14   73 1    
    30   15   16 1    
    31   15   74 1    
    32   15   75 1    
    33   16   17 1    
    34   17   18 1    
    35   17   76 1    
    36   17   77 1    
    37   18   19 1    
    38   18   27 1    
    39   18   78 1    
    40   19   20 am   BACKBONE|DICT|INTERRES
    41   19   79 1    
    42   20   21 2    
    43   20   22 1    
    44   22   23 1    
    45   22   24 1    
    46   22   80 1    
    47   23   81 1    
    48   23   82 1    
    49   23   83 1    
    50   24   25 am   BACKBONE|DICT|INTERRES
    51   24   84 1    
    52   25   26 2    
    53   27   28 2    
    54   27   29 am   BACKBONE|DICT|INTERRES
    55   29   30 1    
    56   29   85 1    
    57   30   31 1    
    58   30   32 1    
    59   30   86 1    
    60   31   87 1    
    61   31   88 1    
    62   31   89 1    
    63   32   33 2    
    64   32   34 am   BACKBONE|DICT|INTERRES
    65   34   35 1    
    66   34   90 1    
    67   35   36 1    
    68   35   37 1    
    69   35   91 1    
    70   36   92 1    
    71   36   93 1    
    72   36   94 1    
    73   37   38 2    
    74   37   39 am   BACKBONE|DICT|INTERRES
    75   39   40 1    
    76   39   95 1    
    77   40   41 1    
    78   40   42 1    
    79   40   96 1    
    80   41   97 1    
    81   41   98 1    
    82   41   99 1    
    83   42   43 2    
    84   42   44 am   BACKBONE|DICT|INTERRES
    85   44   45 1    
    86   44  100 1    
    87   45   46 1    
    88   45   47 1    
    89   45  101 1    
    90   46  102 1    
    91   46  103 1    
    92   46  104 1    
    93   47   48 2    
    94   47   49 am   BACKBONE|DICT|INTERRES
    95   49   50 1    
    96   49  105 1    
    97   50   51 1    
    98   50   52 1    
    99   50  106 1    
   100   51  107 1    
   101   51  108 1    
   102   51  109 1    
   103   52   53 2    
   104   52   54 am   BACKBONE|DICT|INTERRES
   105   54   55 1    
   106   54  110 1    
   107   55   56 1    
   108   55   59 1    
   109   55  111 1    
   110   56   57 am   BACKBONE|DICT|INTERRES
   111   56   58 2    
   112   57  112 1    
   113   57  113 1    
   114   59   60 1    
   115   59  114 1    
   116   59  115 1    
   117   60   61 1    
   118   61  116 1    
   119   61  117 1    
@<TRIPOS>SUBSTRUCTURE
     1 UNK         1 GROUP             0       ****    0 ROOT    
