@<TRIPOS>MOLECULE
3R8
117   119    1
SMALL
USER_CHARGES


@<TRIPOS>ATOM
      1 CA         19.3943  -23.1869  -49.8443 C.3       0 UNK        -0.2013 
      2 C          19.9184  -23.5749  -48.4697 C.2       0 UNK         0.4866 
      3 O          20.5843  -22.7694  -47.8179 O.2       0 UNK        -0.5176 
      4 N          19.6324  -24.8054  -48.0284 N.am      1 UNK        -0.4884 
      5 CA         19.9856  -25.3252  -46.7040 C.3       1 UNK         0.0853 
      6 C6         19.9577  -26.8793  -46.6612 C.3       10 UNK        -0.0849 
      7 S7         18.4347  -27.6518  -47.3235 S.3       10 UNK        -0.2776 
      8 C8         17.4038  -27.8863  -45.8275 C.3       10 UNK         0.0316 
      9 C9         17.8065  -29.0141  -44.8719 C.ar      10 UNK        -0.0863 
     10 C10        18.9650  -29.7866  -45.0331 C.ar      10 UNK        -0.1009 
     11 C11        19.2878  -30.7982  -44.1227 C.ar      10 UNK        -0.0712 
     12 C12        18.4327  -31.0448  -43.0435 C.ar      10 UNK        -0.0894 
     13 C13        17.2624  -30.3009  -42.8778 C.ar      10 UNK        -0.0745 
     14 C14        16.9625  -29.2842  -43.7890 C.ar      10 UNK        -0.0972 
     15 C15        16.3102  -30.6170  -41.7308 C.3       10 UNK         0.0209 
     16 S16        16.9274  -30.0172  -40.1250 S.3       10 UNK        -0.2568 
     17 C17        16.8576  -28.2094  -40.3536 C.3       10 UNK        -0.0983 
     18 CA         18.2433  -27.6325  -40.7333 C.3       3 UNK         0.0876 
     19 N          18.1213  -26.4419  -41.5783 N.am      3 UNK        -0.4424 
     20 C          19.1426  -25.8990  -42.2493 C.2       2 UNK         0.4918 
     21 O          20.2982  -26.3320  -42.2145 O.2       2 UNK        -0.4875 
     22 CA         18.8282  -24.6795  -43.1200 C.3       2 UNK         0.0481 
     23 CB         19.2430  -23.3742  -42.4234 C.3       2 UNK        -0.1831 
     24 N          19.5888  -24.8502  -44.3507 N.am      2 UNK        -0.4498 
     25 C          19.1043  -24.7244  -45.5893 C.2       1 UNK         0.5027 
     26 O          18.0012  -24.2367  -45.8523 O.2       1 UNK        -0.4969 
     27 C          19.1224  -27.3573  -39.4953 C.2       3 UNK         0.5005 
     28 O          19.1717  -26.2201  -39.0183 O.2       3 UNK        -0.5279 
     29 N          19.8329  -28.3937  -39.0291 N.am      4 UNK        -0.4463 
     30 CA         20.8489  -28.4061  -37.9640 C.3       4 UNK         0.0283 
     31 CB         20.2868  -27.9110  -36.6169 C.3       4 UNK        -0.1875 
     32 C          22.1537  -27.6736  -38.3323 C.2       4 UNK         0.4949 
     33 O          23.2280  -28.1684  -37.9919 O.2       4 UNK        -0.5039 
     34 N          22.0535  -26.5403  -39.0415 N.am      5 UNK        -0.4663 
     35 CA         23.1790  -25.8231  -39.6468 C.3       5 UNK         0.0242 
     36 CB         22.7055  -24.4561  -40.1641 C.3       5 UNK        -0.1982 
     37 C          23.8332  -26.6443  -40.7702 C.2       5 UNK         0.5017 
     38 O          25.0605  -26.7370  -40.8202 O.2       5 UNK        -0.5012 
     39 N          23.0008  -27.2695  -41.6153 N.am      6 UNK        -0.4439 
     40 CA         23.3941  -28.3141  -42.5572 C.3       6 UNK         0.0297 
     41 CB         22.3078  -28.4601  -43.6373 C.3       6 UNK        -0.2006 
     42 C          23.6319  -29.6266  -41.7906 C.2       6 UNK         0.4892 
     43 O          22.7044  -30.4173  -41.6121 O.2       6 UNK        -0.5089 
     44 N          24.8711  -29.8161  -41.3211 N.am      7 UNK        -0.4243 
     45 CA         25.2978  -30.9616  -40.5104 C.3       7 UNK         0.0196 
     46 CB         26.6784  -30.6576  -39.9068 C.3       7 UNK        -0.2007 
     47 C          25.3259  -32.3012  -41.2696 C.2       7 UNK         0.5020 
     48 O          25.3401  -33.3519  -40.6282 O.2       7 UNK        -0.5147 
     49 N          25.3252  -32.2528  -42.6102 N.am      8 UNK        -0.4734 
     50 CA         25.3676  -33.4104  -43.5127 C.3       8 UNK         0.0238 
     51 CB         25.4384  -32.9103  -44.9649 C.3       8 UNK        -0.1912 
     52 C          24.1997  -34.4012  -43.3473 C.2       8 UNK         0.5038 
     53 O          24.3759  -35.5844  -43.6415 O.2       8 UNK        -0.5046 
     54 N          23.0472  -33.9108  -42.8741 N.am      9 UNK        -0.4200 
     55 CA         21.8711  -34.7264  -42.5326 C.3       9 UNK         0.0839 
     56 C          21.9536  -35.3968  -41.1289 C.2       9 UNK         0.5513 
     57 N          22.9776  -35.1523  -40.3186 N.am      9 UNK        -0.7519 
     58 O          21.0692  -36.1698  -40.7695 O.2       9 UNK        -0.4960 
     59 C59        20.5516  -33.9297  -42.7033 C.3       10 UNK        -0.0876 
     60 S60        20.2865  -33.3915  -44.4300 S.3       10 UNK        -0.2414 
     61 C61        20.5734  -31.5979  -44.3074 C.3       10 UNK         0.0169 
     62 H62        18.7339  -22.3239  -49.7637 H         1 UNK         0.0903 
     63 H63        20.2225  -22.9226  -50.5013 H         1 UNK         0.0903 
     64 H64        18.8363  -23.9982  -50.3118 H         1 UNK         0.0903 
     65 H65        19.0535  -25.4192  -48.5851 H         1 UNK         0.3096 
     66 H66        21.0109  -25.0095  -46.4950 H         1 UNK         0.1121 
     67 H67        20.1472  -27.2491  -45.6522 H         1 UNK         0.0849 
     68 H68        20.7880  -27.2585  -47.2591 H         1 UNK         0.0849 
     69 H69        17.3556  -26.9517  -45.2693 H         1 UNK         0.0865 
     70 H70        16.3858  -28.0813  -46.1681 H         1 UNK         0.0865 
     71 H71        19.6297  -29.6080  -45.8651 H         1 UNK         0.1346 
     72 H72        18.6654  -31.8243  -42.3335 H         1 UNK         0.1412 
     73 H73        16.0586  -28.7042  -43.6597 H         1 UNK         0.1426 
     74 H74        16.1711  -31.6974  -41.6694 H         1 UNK         0.0716 
     75 H75        15.3209  -30.1969  -41.9191 H         1 UNK         0.0716 
     76 H76        16.4628  -27.7461  -39.4471 H         1 UNK         0.0695 
     77 H77        16.1240  -27.9958  -41.1324 H         1 UNK         0.0695 
     78 H78        18.7687  -28.3684  -41.3476 H         1 UNK         0.0983 
     79 H79        17.2129  -26.0045  -41.6173 H         1 UNK         0.3095 
     80 H80        17.7560  -24.6574  -43.3267 H         1 UNK         0.0454 
     81 H81        20.3134  -23.3456  -42.2196 H         1 UNK         0.0851 
     82 H82        18.7244  -23.2567  -41.4710 H         1 UNK         0.0851 
     83 H83        18.9983  -22.5070  -43.0367 H         1 UNK         0.0851 
     84 H84        20.4826  -25.3042  -44.2105 H         1 UNK         0.2976 
     85 H85        19.7134  -29.2807  -39.5007 H         1 UNK         0.3116 
     86 H86        21.1132  -29.4570  -37.8351 H         1 UNK         0.0646 
     87 H87        20.0451  -26.8482  -36.6365 H         1 UNK         0.0847 
     88 H88        21.0147  -28.0584  -35.8181 H         1 UNK         0.0847 
     89 H89        19.3850  -28.4560  -36.3382 H         1 UNK         0.0847 
     90 H90        21.1179  -26.1926  -39.2313 H         1 UNK         0.3040 
     91 H91        23.9320  -25.6580  -38.8729 H         1 UNK         0.1015 
     92 H92        21.9401  -24.5590  -40.9327 H         1 UNK         0.0786 
     93 H93        23.5338  -23.8964  -40.6007 H         1 UNK         0.0786 
     94 H94        22.2921  -23.8486  -39.3588 H         1 UNK         0.0786 
     95 H95        22.0049  -27.0844  -41.5414 H         1 UNK         0.3172 
     96 H96        24.3223  -28.0213  -43.0526 H         1 UNK         0.0595 
     97 H97        22.5720  -29.2380  -44.3542 H         1 UNK         0.0839 
     98 H98        22.1828  -27.5331  -44.1958 H         1 UNK         0.0839 
     99 H99        21.3397  -28.7229  -43.2084 H         1 UNK         0.0839 
    100 H100       25.5519  -29.0816  -41.4635 H         1 UNK         0.2998 
    101 H101       24.5840  -31.0727  -39.6910 H         1 UNK         0.0822 
    102 H102       27.0135  -31.4741  -39.2653 H         1 UNK         0.0787 
    103 H103       27.4353  -30.5181  -40.6797 H         1 UNK         0.0787 
    104 H104       26.6526  -29.7565  -39.2934 H         1 UNK         0.0787 
    105 H105       25.3175  -31.3411  -43.0436 H         1 UNK         0.3055 
    106 H106       26.2844  -33.9616  -43.2923 H         1 UNK         0.1106 
    107 H107       25.4991  -33.7463  -45.6633 H         1 UNK         0.0828 
    108 H108       24.5577  -32.3256  -45.2340 H         1 UNK         0.0828 
    109 H109       26.3194  -32.2899  -45.1306 H         1 UNK         0.0828 
    110 H110       23.0005  -32.9305  -42.6359 H         1 UNK         0.2931 
    111 H111       21.8277  -35.5569  -43.2401 H         1 UNK         0.0412 
    112 H112       23.0064  -35.6053  -39.4190 H         1 UNK         0.3472 
    113 H113       23.7321  -34.5303  -40.5885 H         1 UNK         0.3472 
    114 H114       20.5418  -33.0746  -42.0259 H         1 UNK         0.0970 
    115 H115       19.6929  -34.5439  -42.4253 H         1 UNK         0.0970 
    116 H116       21.0887  -31.2835  -45.2161 H         1 UNK         0.0612 
    117 H117       21.2564  -31.3833  -43.4881 H         1 UNK         0.0612 
@<TRIPOS>BOND
     1    1    2 1    
     2    1   62 1    
     3    1   63 1    
     4    1   64 1    
     5    2    3 2    
     6    2    4 am   BACKBONE|DICT|INTERRES
     7    4    5 1    
     8    4   65 1    
     9    5    6 1    
    10    5   25 1    
    11    5   66 1    
    12    6    7 1    
    13    6   67 1    
    14    6   68 1    
    15    7    8 1    
    16    8    9 1    
    17    8   69 1    
    18    8   70 1    
    19    9   10 ar   
    20    9   14 ar   
    21   10   11 ar   
    22   10   71 1    
    23   11   12 ar   
    24   11   61 1    
    25   12   13 ar   
    26   12   72 1    
    27   13   14 ar   
    28   13   15 1    
    29   14   73 1    
    30   15   16 1    
    31   15   74 1    
    32   15   75 1    
    33   16   17 1    
    34   17   18 1    
    35   17   76 1    
    36   17   77 1    
    37   18   19 1    
    38   18   27 1    
    39   18   78 1    
    40   19   20 am   BACKBONE|DICT|INTERRES
    41   19   79 1    
    42   20   21 2    
    43   20   22 1    
    44   22   23 1    
    45   22   24 1    
    46   22   80 1    
    47   23   81 1    
    48   23   82 1    
    49   23   83 1    
    50   24   25 am   BACKBONE|DICT|INTERRES
    51   24   84 1    
    52   25   26 2    
    53   27   28 2    
    54   27   29 am   BACKBONE|DICT|INTERRES
    55   29   30 1    
    56   29   85 1    
    57   30   31 1    
    58   30   32 1    
    59   30   86 1    
    60   31   87 1    
    61   31   88 1    
    62   31   89 1    
    63   32   33 2    
    64   32   34 am   BACKBONE|DICT|INTERRES
    65   34   35 1    
    66   34   90 1    
    67   35   36 1    
    68   35   37 1    
    69   35   91 1    
    70   36   92 1    
    71   36   93 1    
    72   36   94 1    
    73   37   38 2    
    74   37   39 am   BACKBONE|DICT|INTERRES
    75   39   40 1    
    76   39   95 1    
    77   40   41 1    
    78   40   42 1    
    79   40   96 1    
    80   41   97 1    
    81   41   98 1    
    82   41   99 1    
    83   42   43 2    
    84   42   44 am   BACKBONE|DICT|INTERRES
    85   44   45 1    
    86   44  100 1    
    87   45   46 1    
    88   45   47 1    
    89   45  101 1    
    90   46  102 1    
    91   46  103 1    
    92   46  104 1    
    93   47   48 2    
    94   47   49 am   BACKBONE|DICT|INTERRES
    95   49   50 1    
    96   49  105 1    
    97   50   51 1    
    98   50   52 1    
    99   50  106 1    
   100   51  107 1    
   101   51  108 1    
   102   51  109 1    
   103   52   53 2    
   104   52   54 am   BACKBONE|DICT|INTERRES
   105   54   55 1    
   106   54  110 1    
   107   55   56 1    
   108   55   59 1    
   109   55  111 1    
   110   56   57 am   BACKBONE|DICT|INTERRES
   111   56   58 2    
   112   57  112 1    
   113   57  113 1    
   114   59   60 1    
   115   59  114 1    
   116   59  115 1    
   117   60   61 1    
   118   61  116 1    
   119   61  117 1    
@<TRIPOS>SUBSTRUCTURE
     1 UNK         1 GROUP             0       ****    0 ROOT    
