@<TRIPOS>MOLECULE
3R8
117   119    1
SMALL
USER_CHARGES


@<TRIPOS>ATOM
      1 CA         14.5706  -25.0401  -45.1600 C.3       0 UNK        -0.2013 
      2 C          15.6097  -25.2772  -44.0745 C.2       0 UNK         0.4866 
      3 O          15.7304  -24.4623  -43.1605 O.2       0 UNK        -0.5176 
      4 N          16.3690  -26.3773  -44.1841 N.am      1 UNK        -0.4884 
      5 CA         17.4012  -26.8529  -43.2436 C.3       1 UNK         0.0853 
      6 C6         16.8551  -27.1407  -41.8139 C.3       10 UNK        -0.0849 
      7 S7         15.6268  -28.4928  -41.7881 S.3       10 UNK        -0.2776 
      8 C8         16.5935  -29.8679  -41.0777 C.3       10 UNK         0.0316 
      9 C9         17.5639  -30.4569  -42.0915 C.ar      10 UNK        -0.0863 
     10 C10        17.1903  -31.5579  -42.8686 C.ar      10 UNK        -0.1009 
     11 C11        18.0727  -32.0935  -43.8126 C.ar      10 UNK        -0.0712 
     12 C12        19.3280  -31.5045  -43.9912 C.ar      10 UNK        -0.0894 
     13 C13        19.7135  -30.4076  -43.2154 C.ar      10 UNK        -0.0745 
     14 C14        18.8353  -29.9010  -42.2555 C.ar      10 UNK        -0.0972 
     15 C15        21.0767  -29.7664  -43.4068 C.3       10 UNK         0.0209 
     16 S16        21.1450  -28.7885  -44.9368 S.3       10 UNK        -0.2568 
     17 C17        22.7355  -27.9347  -44.6859 C.3       10 UNK        -0.0983 
     18 CA         22.7069  -26.4377  -45.0900 C.3       3 UNK         0.0876 
     19 N          21.5770  -25.7258  -44.4896 N.am      3 UNK        -0.4424 
     20 C          21.0771  -24.5656  -44.9240 C.2       2 UNK         0.4918 
     21 O          21.5012  -23.9719  -45.9176 O.2       2 UNK        -0.4875 
     22 CA         19.8871  -23.9941  -44.1257 C.3       2 UNK         0.0481 
     23 CB         19.3681  -22.6655  -44.7063 C.3       2 UNK        -0.1831 
     24 N          18.7682  -24.9382  -44.0379 N.am      2 UNK        -0.4498 
     25 C          18.6818  -25.9834  -43.2026 C.2       1 UNK         0.5027 
     26 O          19.5945  -26.2965  -42.4365 O.2       1 UNK        -0.4969 
     27 C          24.0374  -25.7833  -44.6744 C.2       3 UNK         0.5005 
     28 O          24.1177  -25.1907  -43.5951 O.2       3 UNK        -0.5279 
     29 N          25.0949  -26.0075  -45.4684 N.am      4 UNK        -0.4463 
     30 CA         26.4813  -25.6716  -45.1090 C.3       4 UNK         0.0283 
     31 CB         27.3975  -25.9087  -46.3200 C.3       4 UNK        -0.1875 
     32 C          26.9950  -26.4545  -43.8820 C.2       4 UNK         0.4949 
     33 O          27.8545  -25.9559  -43.1564 O.2       4 UNK        -0.5039 
     34 N          26.4275  -27.6481  -43.6561 N.am      5 UNK        -0.4663 
     35 CA         26.6462  -28.4911  -42.4782 C.3       5 UNK         0.0242 
     36 CB         26.2680  -29.9382  -42.8417 C.3       5 UNK        -0.1982 
     37 C          25.8602  -28.0346  -41.2315 C.2       5 UNK         0.5017 
     38 O          26.0359  -28.6366  -40.1728 O.2       5 UNK        -0.5012 
     39 N          24.9834  -27.0271  -41.3719 N.am      6 UNK        -0.4439 
     40 CA         24.0710  -26.4448  -40.3751 C.3       6 UNK         0.0297 
     41 CB         24.8292  -25.9103  -39.1441 C.3       6 UNK        -0.2006 
     42 C          22.8937  -27.3472  -39.9566 C.2       6 UNK         0.4892 
     43 O          21.8135  -26.8194  -39.6927 O.2       6 UNK        -0.5089 
     44 N          23.0943  -28.6681  -39.9123 N.am      7 UNK        -0.4243 
     45 CA         22.0803  -29.6734  -39.6099 C.3       7 UNK         0.0196 
     46 CB         21.8636  -29.7717  -38.0885 C.3       7 UNK        -0.2007 
     47 C          22.5263  -31.0209  -40.1857 C.2       7 UNK         0.5020 
     48 O          23.7282  -31.2750  -40.2880 O.2       7 UNK        -0.5147 
     49 N          21.5483  -31.8642  -40.5224 N.am      8 UNK        -0.4734 
     50 CA         21.6929  -33.2387  -40.9977 C.3       8 UNK         0.0238 
     51 CB         22.3096  -33.2826  -42.4144 C.3       8 UNK        -0.1912 
     52 C          20.3019  -33.8938  -40.9520 C.2       8 UNK         0.5038 
     53 O          19.3603  -33.2854  -40.4344 O.2       8 UNK        -0.5046 
     54 N          20.1986  -35.1142  -41.4939 N.am      9 UNK        -0.4200 
     55 CA         18.9539  -35.8923  -41.6458 C.3       9 UNK         0.0839 
     56 C          18.3265  -36.3946  -40.3090 C.2       9 UNK         0.5513 
     57 N          19.0600  -36.4171  -39.2025 N.am      9 UNK        -0.7519 
     58 O          17.1686  -36.8044  -40.2765 O.2       9 UNK        -0.4960 
     59 C59        17.9099  -35.2045  -42.5764 C.3       10 UNK        -0.0876 
     60 S60        18.5874  -34.8010  -44.2250 S.3       10 UNK        -0.2414 
     61 C61        17.6627  -33.2916  -44.6581 C.3       10 UNK         0.0169 
     62 H62        13.5737  -25.0040  -44.7214 H         1 UNK         0.0903 
     63 H63        14.7578  -24.0894  -45.6585 H         1 UNK         0.0903 
     64 H64        14.5797  -25.8265  -45.9145 H         1 UNK         0.0903 
     65 H65        16.2130  -26.9904  -44.9731 H         1 UNK         0.3096 
     66 H66        17.7416  -27.8019  -43.6598 H         1 UNK         0.1121 
     67 H67        16.3914  -26.2490  -41.3910 H         1 UNK         0.0849 
     68 H68        17.6593  -27.3907  -41.1211 H         1 UNK         0.0849 
     69 H69        17.1276  -29.5322  -40.1874 H         1 UNK         0.0865 
     70 H70        15.9027  -30.6404  -40.7364 H         1 UNK         0.0865 
     71 H71        16.2103  -31.9963  -42.7395 H         1 UNK         0.1346 
     72 H72        20.0056  -31.9018  -44.7343 H         1 UNK         0.1412 
     73 H73        19.1354  -29.0548  -41.6535 H         1 UNK         0.1426 
     74 H74        21.8527  -30.5316  -43.4324 H         1 UNK         0.0716 
     75 H75        21.3058  -29.1199  -42.5586 H         1 UNK         0.0716 
     76 H76        23.0305  -28.0369  -43.6392 H         1 UNK         0.0695 
     77 H77        23.4891  -28.4721  -45.2644 H         1 UNK         0.0695 
     78 H78        22.6119  -26.3710  -46.1763 H         1 UNK         0.0983 
     79 H79        21.1587  -26.1421  -43.6645 H         1 UNK         0.3095 
     80 H80        20.2496  -23.7906  -43.1159 H         1 UNK         0.0454 
     81 H81        20.1611  -21.9173  -44.7411 H         1 UNK         0.0851 
     82 H82        18.9899  -22.7878  -45.7220 H         1 UNK         0.0851 
     83 H83        18.5642  -22.2531  -44.0962 H         1 UNK         0.0851 
     84 H84        17.9850  -24.7700  -44.6525 H         1 UNK         0.2976 
     85 H85        24.9599  -26.4999  -46.3409 H         1 UNK         0.3116 
     86 H86        26.5146  -24.6093  -44.8574 H         1 UNK         0.0646 
     87 H87        28.4289  -25.6409  -46.0859 H         1 UNK         0.0847 
     88 H88        27.0944  -25.3018  -47.1734 H         1 UNK         0.0847 
     89 H89        27.3964  -26.9539  -46.6318 H         1 UNK         0.0847 
     90 H90        25.7580  -27.9858  -44.3309 H         1 UNK         0.3040 
     91 H91        27.7070  -28.4644  -42.2184 H         1 UNK         0.1015 
     92 H92        26.8501  -30.3013  -43.6889 H         1 UNK         0.0786 
     93 H93        25.2105  -30.0297  -43.0941 H         1 UNK         0.0786 
     94 H94        26.4592  -30.6156  -42.0078 H         1 UNK         0.0786 
     95 H95        24.9185  -26.5880  -42.2841 H         1 UNK         0.3172 
     96 H96        23.6256  -25.5826  -40.8742 H         1 UNK         0.0595 
     97 H97        25.6259  -25.2255  -39.4347 H         1 UNK         0.0839 
     98 H98        25.2727  -26.7128  -38.5543 H         1 UNK         0.0839 
     99 H99        24.1557  -25.3624  -38.4837 H         1 UNK         0.0839 
    100 H100       24.0215  -29.0350  -40.1100 H         1 UNK         0.2998 
    101 H101       21.1427  -29.3843  -40.0894 H         1 UNK         0.0822 
    102 H102       21.5051  -28.8291  -37.6745 H         1 UNK         0.0787 
    103 H103       21.1209  -30.5330  -37.8464 H         1 UNK         0.0787 
    104 H104       22.7856  -30.0363  -37.5692 H         1 UNK         0.0787 
    105 H105       20.5784  -31.6091  -40.3672 H         1 UNK         0.3055 
    106 H106       22.3417  -33.7742  -40.3015 H         1 UNK         0.1106 
    107 H107       23.2295  -32.7023  -42.4810 H         1 UNK         0.0828 
    108 H108       22.5653  -34.3026  -42.7016 H         1 UNK         0.0828 
    109 H109       21.6197  -32.9020  -43.1656 H         1 UNK         0.0828 
    110 H110       21.0254  -35.5464  -41.8786 H         1 UNK         0.2931 
    111 H111       19.2623  -36.8084  -42.1508 H         1 UNK         0.0412 
    112 H112       18.6509  -36.7538  -38.3449 H         1 UNK         0.3472 
    113 H113       20.0142  -36.0945  -39.2149 H         1 UNK         0.3472 
    114 H114       17.5228  -34.3021  -42.1022 H         1 UNK         0.0970 
    115 H115       17.0472  -35.8546  -42.7316 H         1 UNK         0.0970 
    116 H116       16.5933  -33.4881  -44.5660 H         1 UNK         0.0612 
    117 H117       17.8417  -33.0618  -45.7093 H         1 UNK         0.0612 
@<TRIPOS>BOND
     1    1    2 1    
     2    1   62 1    
     3    1   63 1    
     4    1   64 1    
     5    2    3 2    
     6    2    4 am   BACKBONE|DICT|INTERRES
     7    4    5 1    
     8    4   65 1    
     9    5    6 1    
    10    5   25 1    
    11    5   66 1    
    12    6    7 1    
    13    6   67 1    
    14    6   68 1    
    15    7    8 1    
    16    8    9 1    
    17    8   69 1    
    18    8   70 1    
    19    9   10 ar   
    20    9   14 ar   
    21   10   11 ar   
    22   10   71 1    
    23   11   12 ar   
    24   11   61 1    
    25   12   13 ar   
    26   12   72 1    
    27   13   14 ar   
    28   13   15 1    
    29   14   73 1    
    30   15   16 1    
    31   15   74 1    
    32   15   75 1    
    33   16   17 1    
    34   17   18 1    
    35   17   76 1    
    36   17   77 1    
    37   18   19 1    
    38   18   27 1    
    39   18   78 1    
    40   19   20 am   BACKBONE|DICT|INTERRES
    41   19   79 1    
    42   20   21 2    
    43   20   22 1    
    44   22   23 1    
    45   22   24 1    
    46   22   80 1    
    47   23   81 1    
    48   23   82 1    
    49   23   83 1    
    50   24   25 am   BACKBONE|DICT|INTERRES
    51   24   84 1    
    52   25   26 2    
    53   27   28 2    
    54   27   29 am   BACKBONE|DICT|INTERRES
    55   29   30 1    
    56   29   85 1    
    57   30   31 1    
    58   30   32 1    
    59   30   86 1    
    60   31   87 1    
    61   31   88 1    
    62   31   89 1    
    63   32   33 2    
    64   32   34 am   BACKBONE|DICT|INTERRES
    65   34   35 1    
    66   34   90 1    
    67   35   36 1    
    68   35   37 1    
    69   35   91 1    
    70   36   92 1    
    71   36   93 1    
    72   36   94 1    
    73   37   38 2    
    74   37   39 am   BACKBONE|DICT|INTERRES
    75   39   40 1    
    76   39   95 1    
    77   40   41 1    
    78   40   42 1    
    79   40   96 1    
    80   41   97 1    
    81   41   98 1    
    82   41   99 1    
    83   42   43 2    
    84   42   44 am   BACKBONE|DICT|INTERRES
    85   44   45 1    
    86   44  100 1    
    87   45   46 1    
    88   45   47 1    
    89   45  101 1    
    90   46  102 1    
    91   46  103 1    
    92   46  104 1    
    93   47   48 2    
    94   47   49 am   BACKBONE|DICT|INTERRES
    95   49   50 1    
    96   49  105 1    
    97   50   51 1    
    98   50   52 1    
    99   50  106 1    
   100   51  107 1    
   101   51  108 1    
   102   51  109 1    
   103   52   53 2    
   104   52   54 am   BACKBONE|DICT|INTERRES
   105   54   55 1    
   106   54  110 1    
   107   55   56 1    
   108   55   59 1    
   109   55  111 1    
   110   56   57 am   BACKBONE|DICT|INTERRES
   111   56   58 2    
   112   57  112 1    
   113   57  113 1    
   114   59   60 1    
   115   59  114 1    
   116   59  115 1    
   117   60   61 1    
   118   61  116 1    
   119   61  117 1    
@<TRIPOS>SUBSTRUCTURE
     1 UNK         1 GROUP             0       ****    0 ROOT    
