@<TRIPOS>MOLECULE
3R8
117   119    1
SMALL
USER_CHARGES


@<TRIPOS>ATOM
      1 CA         13.2539  -22.6935  -43.1841 C.3       0 UNK        -0.2013 
      2 C          14.0985  -23.3766  -44.2497 C.2       0 UNK         0.4866 
      3 O          14.3411  -22.7899  -45.3045 O.2       0 UNK        -0.5176 
      4 N          14.5330  -24.6140  -43.9834 N.am      1 UNK        -0.4884 
      5 CA         15.4119  -25.4134  -44.8399 C.3       1 UNK         0.0853 
      6 C6         15.0909  -26.9303  -44.7286 C.3       10 UNK        -0.0849 
      7 S7         15.0289  -27.5912  -43.0188 S.3       10 UNK        -0.2776 
      8 C8         15.5624  -29.3169  -43.2509 C.3       10 UNK         0.0316 
      9 C9         17.0395  -29.4244  -43.6036 C.ar      10 UNK        -0.0863 
     10 C10        18.0133  -29.3678  -42.6010 C.ar      10 UNK        -0.1009 
     11 C11        19.3677  -29.5022  -42.9221 C.ar      10 UNK        -0.0712 
     12 C12        19.7442  -29.6953  -44.2529 C.ar      10 UNK        -0.0894 
     13 C13        18.7829  -29.7198  -45.2669 C.ar      10 UNK        -0.0745 
     14 C14        17.4321  -29.6006  -44.9336 C.ar      10 UNK        -0.0972 
     15 C15        19.1950  -29.8673  -46.7238 C.3       10 UNK         0.0209 
     16 S16        19.5963  -28.2527  -47.4713 S.3       10 UNK        -0.2568 
     17 C17        21.2667  -27.9539  -46.7964 C.3       10 UNK        -0.0983 
     18 CA         21.3975  -26.7184  -45.8572 C.3       3 UNK         0.0876 
     19 N          20.2735  -26.5785  -44.9216 N.am      3 UNK        -0.4424 
     20 C          19.9911  -25.4651  -44.2341 C.2       2 UNK         0.4918 
     21 O          20.5536  -24.3832  -44.4195 O.2       2 UNK        -0.4875 
     22 CA         18.9012  -25.5997  -43.1544 C.3       2 UNK         0.0481 
     23 CB         18.8918  -24.4107  -42.1712 C.3       2 UNK        -0.1831 
     24 N          17.5586  -25.8121  -43.7043 N.am      2 UNK        -0.4498 
     25 C          16.8833  -25.0322  -44.5617 C.2       1 UNK         0.5027 
     26 O          17.3539  -24.0278  -45.0977 O.2       1 UNK        -0.4969 
     27 C          22.7509  -26.7601  -45.1014 C.2       3 UNK         0.5005 
     28 O          22.7861  -26.7060  -43.8675 O.2       3 UNK        -0.5279 
     29 N          23.8500  -26.9070  -45.8563 N.am      4 UNK        -0.4463 
     30 CA         25.1934  -27.1770  -45.3321 C.3       4 UNK         0.0283 
     31 CB         26.1917  -27.2064  -46.5011 C.3       4 UNK        -0.1875 
     32 C          25.2574  -28.4970  -44.5369 C.2       4 UNK         0.4949 
     33 O          24.4860  -29.4174  -44.8184 O.2       4 UNK        -0.5039 
     34 N          26.1894  -28.5536  -43.5742 N.am      5 UNK        -0.4663 
     35 CA         26.3646  -29.6203  -42.5776 C.3       5 UNK         0.0242 
     36 CB         26.7245  -30.9690  -43.2398 C.3       5 UNK        -0.1982 
     37 C          25.1545  -29.7109  -41.6275 C.2       5 UNK         0.5017 
     38 O          24.5565  -30.7772  -41.4765 O.2       5 UNK        -0.5012 
     39 N          24.8160  -28.5702  -41.0081 N.am      6 UNK        -0.4439 
     40 CA         23.7484  -28.4280  -40.0140 C.3       6 UNK         0.0297 
     41 CB         23.6429  -26.9553  -39.5888 C.3       6 UNK        -0.2006 
     42 C          23.9574  -29.3354  -38.7894 C.2       6 UNK         0.4892 
     43 O          25.1005  -29.5771  -38.3954 O.2       6 UNK        -0.5089 
     44 N          22.8464  -29.8415  -38.2370 N.am      7 UNK        -0.4243 
     45 CA         22.7260  -30.8202  -37.1430 C.3       7 UNK         0.0196 
     46 CB         23.4152  -30.3349  -35.8521 C.3       7 UNK        -0.2007 
     47 C          23.1721  -32.2480  -37.5158 C.2       7 UNK         0.5020 
     48 O          22.5601  -33.2050  -37.0419 O.2       7 UNK        -0.5147 
     49 N          24.1946  -32.3808  -38.3703 N.am      8 UNK        -0.4734 
     50 CA         24.6266  -33.6454  -38.9739 C.3       8 UNK         0.0238 
     51 CB         26.0560  -33.4820  -39.5159 C.3       8 UNK        -0.1912 
     52 C          23.6762  -34.1286  -40.0865 C.2       8 UNK         0.5038 
     53 O          23.6499  -35.3260  -40.3750 O.2       8 UNK        -0.5046 
     54 N          22.9295  -33.1934  -40.6875 N.am      9 UNK        -0.4200 
     55 CA         21.8924  -33.4105  -41.7031 C.3       9 UNK         0.0839 
     56 C          20.7491  -34.3684  -41.2587 C.2       9 UNK         0.5513 
     57 N          20.1193  -35.0529  -42.2045 N.am      9 UNK        -0.7519 
     58 O          20.4061  -34.4749  -40.0829 O.2       9 UNK        -0.4960 
     59 C59        21.3417  -32.0576  -42.2319 C.3       10 UNK        -0.0876 
     60 S60        20.6328  -30.9770  -40.9363 S.3       10 UNK        -0.2414 
     61 C61        20.4325  -29.4113  -41.8405 C.3       10 UNK         0.0169 
     62 H62        13.1084  -23.3274  -42.3095 H         1 UNK         0.0903 
     63 H63        13.7353  -21.7719  -42.8580 H         1 UNK         0.0903 
     64 H64        12.2732  -22.4418  -43.5868 H         1 UNK         0.0903 
     65 H65        14.3043  -25.0429  -43.0968 H         1 UNK         0.3096 
     66 H66        15.2279  -25.1348  -45.8806 H         1 UNK         0.1121 
     67 H67        15.7948  -27.4970  -45.3363 H         1 UNK         0.0849 
     68 H68        14.1145  -27.1179  -45.1782 H         1 UNK         0.0849 
     69 H69        15.3698  -29.8706  -42.3307 H         1 UNK         0.0865 
     70 H70        14.9458  -29.7874  -44.0186 H         1 UNK         0.0865 
     71 H71        17.7178  -29.2250  -41.5702 H         1 UNK         0.1346 
     72 H72        20.7914  -29.8093  -44.4941 H         1 UNK         0.1412 
     73 H73        16.6853  -29.6420  -45.7150 H         1 UNK         0.1426 
     74 H74        18.3844  -30.3224  -47.2950 H         1 UNK         0.0716 
     75 H75        20.0435  -30.5471  -46.8154 H         1 UNK         0.0716 
     76 H76        21.6214  -28.8601  -46.3048 H         1 UNK         0.0695 
     77 H77        21.9265  -27.8282  -47.6563 H         1 UNK         0.0695 
     78 H78        21.4084  -25.8235  -46.4835 H         1 UNK         0.0983 
     79 H79        19.7550  -27.4228  -44.7243 H         1 UNK         0.3095 
     80 H80        19.1422  -26.4930  -42.5767 H         1 UNK         0.0454 
     81 H81        19.8706  -24.2818  -41.7075 H         1 UNK         0.0851 
     82 H82        18.1711  -24.5658  -41.3685 H         1 UNK         0.0851 
     83 H83        18.6422  -23.4729  -42.6687 H         1 UNK         0.0851 
     84 H84        17.0630  -26.6194  -43.3440 H         1 UNK         0.2976 
     85 H85        23.7437  -26.9666  -46.8584 H         1 UNK         0.3116 
     86 H86        25.4587  -26.3552  -44.6635 H         1 UNK         0.0646 
     87 H87        25.9623  -28.0058  -47.2072 H         1 UNK         0.0847 
     88 H88        27.2091  -27.3721  -46.1443 H         1 UNK         0.0847 
     89 H89        26.1935  -26.2635  -47.0483 H         1 UNK         0.0847 
     90 H90        26.7865  -27.7466  -43.4519 H         1 UNK         0.3040 
     91 H91        27.2153  -29.3311  -41.9580 H         1 UNK         0.1015 
     92 H92        25.8957  -31.3774  -43.8187 H         1 UNK         0.0786 
     93 H93        26.9841  -31.7126  -42.4856 H         1 UNK         0.0786 
     94 H94        27.5820  -30.8688  -43.9049 H         1 UNK         0.0786 
     95 H95        25.3663  -27.7456  -41.1953 H         1 UNK         0.3172 
     96 H96        22.8158  -28.7139  -40.4986 H         1 UNK         0.0595 
     97 H97        24.5630  -26.6042  -39.1195 H         1 UNK         0.0839 
     98 H98        22.8357  -26.8119  -38.8692 H         1 UNK         0.0839 
     99 H99        23.4310  -26.3102  -40.4422 H         1 UNK         0.0839 
    100 H100       21.9654  -29.5913  -38.6657 H         1 UNK         0.2998 
    101 H101       21.6568  -30.8826  -36.9331 H         1 UNK         0.0822 
    102 H102       23.1939  -31.0060  -35.0211 H         1 UNK         0.0787 
    103 H103       24.5001  -30.2987  -35.9536 H         1 UNK         0.0787 
    104 H104       23.0703  -29.3411  -35.5671 H         1 UNK         0.0787 
    105 H105       24.6699  -31.5350  -38.6693 H         1 UNK         0.3055 
    106 H106       24.6379  -34.4146  -38.1983 H         1 UNK         0.1106 
    107 H107       26.7517  -33.2043  -38.7240 H         1 UNK         0.0828 
    108 H108       26.4170  -34.4145  -39.9519 H         1 UNK         0.0828 
    109 H109       26.1080  -32.7179  -40.2919 H         1 UNK         0.0828 
    110 H110       23.0735  -32.2309  -40.4165 H         1 UNK         0.2931 
    111 H111       22.4011  -33.8982  -42.5370 H         1 UNK         0.0412 
    112 H112       20.3848  -34.9715  -43.1738 H         1 UNK         0.3472 
    113 H113       19.3664  -35.6703  -41.9426 H         1 UNK         0.3472 
    114 H114       20.5853  -32.2280  -43.0001 H         1 UNK         0.0970 
    115 H115       22.1472  -31.5124  -42.7274 H         1 UNK         0.0970 
    116 H116       21.3890  -29.1167  -42.2762 H         1 UNK         0.0612 
    117 H117       20.1652  -28.6263  -41.1317 H         1 UNK         0.0612 
@<TRIPOS>BOND
     1    1    2 1    
     2    1   62 1    
     3    1   63 1    
     4    1   64 1    
     5    2    3 2    
     6    2    4 am   BACKBONE|DICT|INTERRES
     7    4    5 1    
     8    4   65 1    
     9    5    6 1    
    10    5   25 1    
    11    5   66 1    
    12    6    7 1    
    13    6   67 1    
    14    6   68 1    
    15    7    8 1    
    16    8    9 1    
    17    8   69 1    
    18    8   70 1    
    19    9   10 ar   
    20    9   14 ar   
    21   10   11 ar   
    22   10   71 1    
    23   11   12 ar   
    24   11   61 1    
    25   12   13 ar   
    26   12   72 1    
    27   13   14 ar   
    28   13   15 1    
    29   14   73 1    
    30   15   16 1    
    31   15   74 1    
    32   15   75 1    
    33   16   17 1    
    34   17   18 1    
    35   17   76 1    
    36   17   77 1    
    37   18   19 1    
    38   18   27 1    
    39   18   78 1    
    40   19   20 am   BACKBONE|DICT|INTERRES
    41   19   79 1    
    42   20   21 2    
    43   20   22 1    
    44   22   23 1    
    45   22   24 1    
    46   22   80 1    
    47   23   81 1    
    48   23   82 1    
    49   23   83 1    
    50   24   25 am   BACKBONE|DICT|INTERRES
    51   24   84 1    
    52   25   26 2    
    53   27   28 2    
    54   27   29 am   BACKBONE|DICT|INTERRES
    55   29   30 1    
    56   29   85 1    
    57   30   31 1    
    58   30   32 1    
    59   30   86 1    
    60   31   87 1    
    61   31   88 1    
    62   31   89 1    
    63   32   33 2    
    64   32   34 am   BACKBONE|DICT|INTERRES
    65   34   35 1    
    66   34   90 1    
    67   35   36 1    
    68   35   37 1    
    69   35   91 1    
    70   36   92 1    
    71   36   93 1    
    72   36   94 1    
    73   37   38 2    
    74   37   39 am   BACKBONE|DICT|INTERRES
    75   39   40 1    
    76   39   95 1    
    77   40   41 1    
    78   40   42 1    
    79   40   96 1    
    80   41   97 1    
    81   41   98 1    
    82   41   99 1    
    83   42   43 2    
    84   42   44 am   BACKBONE|DICT|INTERRES
    85   44   45 1    
    86   44  100 1    
    87   45   46 1    
    88   45   47 1    
    89   45  101 1    
    90   46  102 1    
    91   46  103 1    
    92   46  104 1    
    93   47   48 2    
    94   47   49 am   BACKBONE|DICT|INTERRES
    95   49   50 1    
    96   49  105 1    
    97   50   51 1    
    98   50   52 1    
    99   50  106 1    
   100   51  107 1    
   101   51  108 1    
   102   51  109 1    
   103   52   53 2    
   104   52   54 am   BACKBONE|DICT|INTERRES
   105   54   55 1    
   106   54  110 1    
   107   55   56 1    
   108   55   59 1    
   109   55  111 1    
   110   56   57 am   BACKBONE|DICT|INTERRES
   111   56   58 2    
   112   57  112 1    
   113   57  113 1    
   114   59   60 1    
   115   59  114 1    
   116   59  115 1    
   117   60   61 1    
   118   61  116 1    
   119   61  117 1    
@<TRIPOS>SUBSTRUCTURE
     1 UNK         1 GROUP             0       ****    0 ROOT    
