@<TRIPOS>MOLECULE
3R8
117   119    1
SMALL
USER_CHARGES


@<TRIPOS>ATOM
      1 CA         14.8582  -22.7992  -43.2705 C.3       0 UNK        -0.2013 
      2 C          15.8569  -23.9090  -43.5644 C.2       0 UNK         0.4866 
      3 O          16.3576  -24.5275  -42.6263 O.2       0 UNK        -0.5176 
      4 N          16.1376  -24.1402  -44.8569 N.am      1 UNK        -0.4884 
      5 CA         17.0413  -25.1459  -45.4399 C.3       1 UNK         0.0853 
      6 C6         16.3595  -26.5161  -45.7171 C.3       10 UNK        -0.0849 
      7 S7         15.8202  -27.5152  -44.2814 S.3       10 UNK        -0.2776 
      8 C8         15.7925  -29.1970  -44.9942 C.3       10 UNK         0.0316 
      9 C9         17.1345  -29.9087  -44.8617 C.ar      10 UNK        -0.0863 
     10 C10        17.3379  -30.8546  -43.8525 C.ar      10 UNK        -0.1009 
     11 C11        18.5625  -31.5207  -43.7380 C.ar      10 UNK        -0.0712 
     12 C12        19.6042  -31.2037  -44.6174 C.ar      10 UNK        -0.0894 
     13 C13        19.4214  -30.2510  -45.6262 C.ar      10 UNK        -0.0745 
     14 C14        18.1693  -29.6424  -45.7615 C.ar      10 UNK        -0.0972 
     15 C15        20.5688  -29.9139  -46.5795 C.3       10 UNK         0.0209 
     16 S16        20.5977  -28.1550  -47.0956 S.3       10 UNK        -0.2568 
     17 C17        22.2948  -27.6303  -46.6726 C.3       10 UNK        -0.0983 
     18 CA         22.4152  -26.8853  -45.3197 C.3       3 UNK         0.0876 
     19 N          21.5336  -25.7133  -45.2303 N.am      3 UNK        -0.4424 
     20 C          21.5484  -24.8216  -44.2282 C.2       2 UNK         0.4918 
     21 O          22.3911  -24.8314  -43.3301 O.2       2 UNK        -0.4875 
     22 CA         20.4239  -23.7683  -44.1687 C.3       2 UNK         0.0481 
     23 CB         20.9465  -22.4147  -44.6757 C.3       2 UNK        -0.1831 
     24 N          19.1633  -24.0830  -44.8587 N.am      2 UNK        -0.4498 
     25 C          18.4318  -25.2061  -44.7627 C.2       1 UNK         0.5027 
     26 O          18.8087  -26.2194  -44.1746 O.2       1 UNK        -0.4969 
     27 C          22.2726  -27.8523  -44.1233 C.2       3 UNK         0.5005 
     28 O          23.2425  -28.5369  -43.7969 O.2       3 UNK        -0.5279 
     29 N          21.1111  -27.8498  -43.4497 N.am      4 UNK        -0.4463 
     30 CA         20.8354  -28.5944  -42.2183 C.3       4 UNK         0.0283 
     31 CB         19.3957  -28.3054  -41.7673 C.3       4 UNK        -0.1875 
     32 C          21.8177  -28.2970  -41.0714 C.2       4 UNK         0.4949 
     33 O          22.1068  -29.1927  -40.2798 O.2       4 UNK        -0.5039 
     34 N          22.3474  -27.0655  -41.0175 N.am      5 UNK        -0.4663 
     35 CA         23.3607  -26.6514  -40.0433 C.3       5 UNK         0.0242 
     36 CB         23.4751  -25.1188  -40.0493 C.3       5 UNK        -0.1982 
     37 C          24.7373  -27.2962  -40.2880 C.2       5 UNK         0.5017 
     38 O          25.4947  -27.4660  -39.3322 O.2       5 UNK        -0.5012 
     39 N          25.0349  -27.6423  -41.5481 N.am      6 UNK        -0.4439 
     40 CA         26.2590  -28.3341  -41.9525 C.3       6 UNK         0.0297 
     41 CB         26.6797  -27.8583  -43.3531 C.3       6 UNK        -0.2006 
     42 C          26.0672  -29.8577  -41.9313 C.2       6 UNK         0.4892 
     43 O          26.9612  -30.5727  -41.4779 O.2       6 UNK        -0.5089 
     44 N          24.9100  -30.3243  -42.4217 N.am      7 UNK        -0.4243 
     45 CA         24.5414  -31.7384  -42.5048 C.3       7 UNK         0.0196 
     46 CB         23.3148  -31.8819  -43.4206 C.3       7 UNK        -0.2007 
     47 C          24.2550  -32.3869  -41.1411 C.2       7 UNK         0.5020 
     48 O          24.3921  -33.6040  -41.0233 O.2       7 UNK        -0.5147 
     49 N          23.8105  -31.5881  -40.1594 N.am      8 UNK        -0.4734 
     50 CA         23.3921  -31.9419  -38.7919 C.3       8 UNK         0.0238 
     51 CB         24.5193  -32.6483  -38.0131 C.3       8 UNK        -0.1912 
     52 C          22.0686  -32.7283  -38.7048 C.2       8 UNK         0.5038 
     53 O          21.3774  -32.6131  -37.6911 O.2       8 UNK        -0.5046 
     54 N          21.7260  -33.4729  -39.7629 N.am      9 UNK        -0.4200 
     55 CA         20.4841  -34.2360  -39.9536 C.3       9 UNK         0.0839 
     56 C          20.3579  -35.4531  -38.9862 C.2       9 UNK         0.5513 
     57 N          19.1787  -36.0548  -38.8668 N.am      9 UNK        -0.7519 
     58 O          21.3307  -35.8991  -38.3756 O.2       9 UNK        -0.4960 
     59 C59        19.2148  -33.3305  -39.9945 C.3       10 UNK        -0.0876 
     60 S60        19.3646  -31.8996  -41.1213 S.3       10 UNK        -0.2414 
     61 C61        18.7446  -32.5976  -42.6782 C.3       10 UNK         0.0169 
     62 H62        14.4894  -22.3264  -44.1805 H         1 UNK         0.0903 
     63 H63        14.0028  -23.2001  -42.7275 H         1 UNK         0.0903 
     64 H64        15.3226  -22.0303  -42.6537 H         1 UNK         0.0903 
     65 H65        15.6756  -23.5582  -45.5424 H         1 UNK         0.3096 
     66 H66        17.2598  -24.7503  -46.4339 H         1 UNK         0.1121 
     67 H67        17.0259  -27.1072  -46.3388 H         1 UNK         0.0849 
     68 H68        15.4767  -26.3505  -46.3361 H         1 UNK         0.0849 
     69 H69        15.0169  -29.7722  -44.4862 H         1 UNK         0.0865 
     70 H70        15.4915  -29.1541  -46.0421 H         1 UNK         0.0865 
     71 H71        16.5387  -31.0834  -43.1607 H         1 UNK         0.1346 
     72 H72        20.5552  -31.7079  -44.5201 H         1 UNK         0.1412 
     73 H73        18.0078  -28.9502  -46.5716 H         1 UNK         0.1426 
     74 H74        21.5198  -30.1769  -46.1143 H         1 UNK         0.0716 
     75 H75        20.4787  -30.5374  -47.4696 H         1 UNK         0.0716 
     76 H76        22.6313  -26.9670  -47.4707 H         1 UNK         0.0695 
     77 H77        22.9729  -28.4851  -46.7106 H         1 UNK         0.0695 
     78 H78        23.4361  -26.5011  -45.2607 H         1 UNK         0.0983 
     79 H79        20.7911  -25.6641  -45.9122 H         1 UNK         0.3095 
     80 H80        20.1698  -23.6528  -43.1134 H         1 UNK         0.0454 
     81 H81        20.2250  -21.6167  -44.5000 H         1 UNK         0.0851 
     82 H82        21.1660  -22.4422  -45.7437 H         1 UNK         0.0851 
     83 H83        21.8664  -22.1312  -44.1619 H         1 UNK         0.0851 
     84 H84        18.7519  -23.3138  -45.3680 H         1 UNK         0.2976 
     85 H85        20.3499  -27.2689  -43.7972 H         1 UNK         0.3116 
     86 H86        20.9155  -29.6554  -42.4552 H         1 UNK         0.0646 
     87 H87        18.6768  -28.5964  -42.5335 H         1 UNK         0.0847 
     88 H88        19.1478  -28.8612  -40.8624 H         1 UNK         0.0847 
     89 H89        19.2432  -27.2467  -41.5546 H         1 UNK         0.0847 
     90 H90        22.0869  -26.3878  -41.7240 H         1 UNK         0.3040 
     91 H91        23.0255  -26.9653  -39.0520 H         1 UNK         0.1015 
     92 H92        23.8255  -24.7435  -41.0116 H         1 UNK         0.0786 
     93 H93        24.1814  -24.7781  -39.2909 H         1 UNK         0.0786 
     94 H94        22.5163  -24.6470  -39.8338 H         1 UNK         0.0786 
     95 H95        24.3248  -27.5226  -42.2604 H         1 UNK         0.3172 
     96 H96        27.0665  -28.0856  -41.2603 H         1 UNK         0.0595 
     97 H97        25.9225  -28.0799  -44.1060 H         1 UNK         0.0839 
     98 H98        27.6031  -28.3464  -43.6678 H         1 UNK         0.0839 
     99 H99        26.8612  -26.7835  -43.3677 H         1 UNK         0.0839 
    100 H100       24.2539  -29.6620  -42.8333 H         1 UNK         0.2998 
    101 H101       25.3756  -32.2782  -42.9581 H         1 UNK         0.0822 
    102 H102       23.0445  -32.9303  -43.5537 H         1 UNK         0.0787 
    103 H103       22.4465  -31.3709  -43.0044 H         1 UNK         0.0787 
    104 H104       23.5053  -31.4664  -44.4104 H         1 UNK         0.0787 
    105 H105       23.6221  -30.6211  -40.4036 H         1 UNK         0.3055 
    106 H106       23.2022  -30.9873  -38.2976 H         1 UNK         0.1106 
    107 H107       25.4417  -32.0681  -38.0362 H         1 UNK         0.0828 
    108 H108       24.2428  -32.7776  -36.9659 H         1 UNK         0.0828 
    109 H109       24.7341  -33.6398  -38.4122 H         1 UNK         0.0828 
    110 H110       22.4189  -33.5667  -40.4947 H         1 UNK         0.2931 
    111 H111       20.5905  -34.6821  -40.9428 H         1 UNK         0.0412 
    112 H112       18.3666  -35.7363  -39.3751 H         1 UNK         0.3472 
    113 H113       19.1017  -36.8538  -38.2562 H         1 UNK         0.3472 
    114 H114       18.9986  -32.9450  -38.9968 H         1 UNK         0.0970 
    115 H115       18.3352  -33.9049  -40.2867 H         1 UNK         0.0970 
    116 H116       19.4392  -33.3615  -43.0306 H         1 UNK         0.0612 
    117 H117       17.7936  -33.1015  -42.4995 H         1 UNK         0.0612 
@<TRIPOS>BOND
     1    1    2 1    
     2    1   62 1    
     3    1   63 1    
     4    1   64 1    
     5    2    3 2    
     6    2    4 am   BACKBONE|DICT|INTERRES
     7    4    5 1    
     8    4   65 1    
     9    5    6 1    
    10    5   25 1    
    11    5   66 1    
    12    6    7 1    
    13    6   67 1    
    14    6   68 1    
    15    7    8 1    
    16    8    9 1    
    17    8   69 1    
    18    8   70 1    
    19    9   10 ar   
    20    9   14 ar   
    21   10   11 ar   
    22   10   71 1    
    23   11   12 ar   
    24   11   61 1    
    25   12   13 ar   
    26   12   72 1    
    27   13   14 ar   
    28   13   15 1    
    29   14   73 1    
    30   15   16 1    
    31   15   74 1    
    32   15   75 1    
    33   16   17 1    
    34   17   18 1    
    35   17   76 1    
    36   17   77 1    
    37   18   19 1    
    38   18   27 1    
    39   18   78 1    
    40   19   20 am   BACKBONE|DICT|INTERRES
    41   19   79 1    
    42   20   21 2    
    43   20   22 1    
    44   22   23 1    
    45   22   24 1    
    46   22   80 1    
    47   23   81 1    
    48   23   82 1    
    49   23   83 1    
    50   24   25 am   BACKBONE|DICT|INTERRES
    51   24   84 1    
    52   25   26 2    
    53   27   28 2    
    54   27   29 am   BACKBONE|DICT|INTERRES
    55   29   30 1    
    56   29   85 1    
    57   30   31 1    
    58   30   32 1    
    59   30   86 1    
    60   31   87 1    
    61   31   88 1    
    62   31   89 1    
    63   32   33 2    
    64   32   34 am   BACKBONE|DICT|INTERRES
    65   34   35 1    
    66   34   90 1    
    67   35   36 1    
    68   35   37 1    
    69   35   91 1    
    70   36   92 1    
    71   36   93 1    
    72   36   94 1    
    73   37   38 2    
    74   37   39 am   BACKBONE|DICT|INTERRES
    75   39   40 1    
    76   39   95 1    
    77   40   41 1    
    78   40   42 1    
    79   40   96 1    
    80   41   97 1    
    81   41   98 1    
    82   41   99 1    
    83   42   43 2    
    84   42   44 am   BACKBONE|DICT|INTERRES
    85   44   45 1    
    86   44  100 1    
    87   45   46 1    
    88   45   47 1    
    89   45  101 1    
    90   46  102 1    
    91   46  103 1    
    92   46  104 1    
    93   47   48 2    
    94   47   49 am   BACKBONE|DICT|INTERRES
    95   49   50 1    
    96   49  105 1    
    97   50   51 1    
    98   50   52 1    
    99   50  106 1    
   100   51  107 1    
   101   51  108 1    
   102   51  109 1    
   103   52   53 2    
   104   52   54 am   BACKBONE|DICT|INTERRES
   105   54   55 1    
   106   54  110 1    
   107   55   56 1    
   108   55   59 1    
   109   55  111 1    
   110   56   57 am   BACKBONE|DICT|INTERRES
   111   56   58 2    
   112   57  112 1    
   113   57  113 1    
   114   59   60 1    
   115   59  114 1    
   116   59  115 1    
   117   60   61 1    
   118   61  116 1    
   119   61  117 1    
@<TRIPOS>SUBSTRUCTURE
     1 UNK         1 GROUP             0       ****    0 ROOT    
