@<TRIPOS>MOLECULE
3R8
117   119    1
SMALL
USER_CHARGES


@<TRIPOS>ATOM
      1 CA         14.1586  -23.1918  -46.4877 C.3       0 UNK        -0.2013 
      2 C          15.3523  -24.1013  -46.2406 C.2       0 UNK         0.4866 
      3 O          15.8749  -24.6986  -47.1826 O.2       0 UNK        -0.5176 
      4 N          15.7996  -24.2058  -44.9828 N.am      1 UNK        -0.4884 
      5 CA         16.9215  -25.0436  -44.5369 C.3       1 UNK         0.0853 
      6 C6         16.7947  -25.4156  -43.0359 C.3       10 UNK        -0.0849 
      7 S7         15.3373  -26.4706  -42.7253 S.3       10 UNK        -0.2776 
      8 C8         16.0138  -27.7323  -41.5856 C.3       10 UNK         0.0316 
      9 C9         17.1029  -28.6505  -42.1500 C.ar      10 UNK        -0.0863 
     10 C10        17.8582  -29.4093  -41.2487 C.ar      10 UNK        -0.1009 
     11 C11        18.8579  -30.2753  -41.7003 C.ar      10 UNK        -0.0712 
     12 C12        19.1216  -30.3660  -43.0691 C.ar      10 UNK        -0.0894 
     13 C13        18.3729  -29.6234  -43.9859 C.ar      10 UNK        -0.0745 
     14 C14        17.3569  -28.7816  -43.5228 C.ar      10 UNK        -0.0972 
     15 C15        18.6533  -29.7441  -45.4785 C.3       10 UNK         0.0209 
     16 S16        19.3281  -28.2073  -46.1872 S.3       10 UNK        -0.2568 
     17 C17        20.8139  -27.9589  -45.1581 C.3       10 UNK        -0.0983 
     18 CA         21.7488  -26.8290  -45.6700 C.3       3 UNK         0.0876 
     19 N          21.0353  -25.5599  -45.7812 N.am      3 UNK        -0.4424 
     20 C          20.7351  -24.9076  -46.9059 C.2       2 UNK         0.4918 
     21 O          21.1140  -25.2530  -48.0266 O.2       2 UNK        -0.4875 
     22 CA         19.7970  -23.6957  -46.7351 C.3       2 UNK         0.0481 
     23 CB         19.5301  -22.9567  -48.0589 C.3       2 UNK        -0.1831 
     24 N          18.5173  -24.1251  -46.1639 N.am      2 UNK        -0.4498 
     25 C          18.2839  -24.3973  -44.8731 C.2       1 UNK         0.5027 
     26 O          19.1079  -24.1791  -43.9821 O.2       1 UNK        -0.4969 
     27 C          22.9060  -26.6414  -44.6766 C.2       3 UNK         0.5005 
     28 O          22.8846  -25.7039  -43.8721 O.2       3 UNK        -0.5279 
     29 N          23.8549  -27.5868  -44.6727 N.am      4 UNK        -0.4463 
     30 CA         24.9168  -27.7038  -43.6658 C.3       4 UNK         0.0283 
     31 CB         26.0905  -28.5050  -44.2603 C.3       4 UNK        -0.1875 
     32 C          24.3888  -28.3196  -42.3520 C.2       4 UNK         0.4949 
     33 O          24.9401  -29.3046  -41.8620 O.2       4 UNK        -0.5039 
     34 N          23.2963  -27.7615  -41.8203 N.am      5 UNK        -0.4663 
     35 CA         22.6598  -28.1917  -40.5775 C.3       5 UNK         0.0242 
     36 CB         21.2513  -27.5786  -40.5074 C.3       5 UNK        -0.1982 
     37 C          23.5066  -27.7754  -39.3547 C.2       5 UNK         0.5017 
     38 O          24.1415  -26.7214  -39.4026 O.2       5 UNK        -0.5012 
     39 N          23.5189  -28.5406  -38.2540 N.am      6 UNK        -0.4439 
     40 CA         22.8258  -29.8144  -38.0335 C.3       6 UNK         0.0297 
     41 CB         22.5906  -29.9904  -36.5244 C.3       6 UNK        -0.2006 
     42 C          23.5750  -31.0372  -38.5962 C.2       6 UNK         0.4892 
     43 O          22.9898  -32.1183  -38.6172 O.2       6 UNK        -0.5089 
     44 N          24.8300  -30.8648  -39.0418 N.am      7 UNK        -0.4243 
     45 CA         25.7141  -31.9304  -39.5379 C.3       7 UNK         0.0196 
     46 CB         27.0797  -31.3358  -39.9173 C.3       7 UNK        -0.2007 
     47 C          25.1317  -32.7468  -40.7057 C.2       7 UNK         0.5020 
     48 O          25.3037  -33.9654  -40.7357 O.2       7 UNK        -0.5147 
     49 N          24.3966  -32.0777  -41.6042 N.am      8 UNK        -0.4734 
     50 CA         23.6290  -32.6787  -42.7027 C.3       8 UNK         0.0238 
     51 CB         23.0084  -31.5559  -43.5525 C.3       8 UNK        -0.1912 
     52 C          22.5393  -33.6768  -42.2579 C.2       8 UNK         0.5038 
     53 O          22.1387  -34.5167  -43.0646 O.2       8 UNK        -0.5046 
     54 N          22.0919  -33.5741  -41.0007 N.am      9 UNK        -0.4200 
     55 CA         21.1462  -34.4872  -40.3459 C.3       9 UNK         0.0839 
     56 C          21.8517  -35.5512  -39.4539 C.2       9 UNK         0.5513 
     57 N          23.1773  -35.6295  -39.4106 N.am      9 UNK        -0.7519 
     58 O          21.1800  -36.3459  -38.8009 O.2       9 UNK        -0.4960 
     59 C59        20.0634  -33.6958  -39.5626 C.3       10 UNK        -0.0876 
     60 S60        18.9218  -32.8155  -40.6781 S.3       10 UNK        -0.2414 
     61 C61        19.6306  -31.1411  -40.7180 C.3       10 UNK         0.0169 
     62 H62        13.3387  -23.7608  -46.9253 H         1 UNK         0.0903 
     63 H63        13.7987  -22.7316  -45.5677 H         1 UNK         0.0903 
     64 H64        14.4303  -22.3966  -47.1815 H         1 UNK         0.0903 
     65 H65        15.3384  -23.6817  -44.2524 H         1 UNK         0.3096 
     66 H66        16.8963  -25.9765  -45.1052 H         1 UNK         0.1121 
     67 H67        17.6865  -25.9466  -42.6968 H         1 UNK         0.0849 
     68 H68        16.7238  -24.5195  -42.4168 H         1 UNK         0.0849 
     69 H69        16.3959  -27.2192  -40.7014 H         1 UNK         0.0865 
     70 H70        15.1875  -28.3563  -41.2427 H         1 UNK         0.0865 
     71 H71        17.6556  -29.3391  -40.1884 H         1 UNK         0.1346 
     72 H72        19.8933  -31.0371  -43.4199 H         1 UNK         0.1412 
     73 H73        16.7738  -28.2292  -44.2447 H         1 UNK         0.1426 
     74 H74        17.7277  -29.9958  -45.9980 H         1 UNK         0.0716 
     75 H75        19.3484  -30.5609  -45.6792 H         1 UNK         0.0716 
     76 H76        21.3510  -28.9080  -45.1080 H         1 UNK         0.0695 
     77 H77        20.4781  -27.7427  -44.1412 H         1 UNK         0.0695 
     78 H78        22.1702  -27.1124  -46.6370 H         1 UNK         0.0983 
     79 H79        20.7197  -25.1653  -44.9018 H         1 UNK         0.3095 
     80 H80        20.2798  -22.9948  -46.0510 H         1 UNK         0.0454 
     81 H81        20.4617  -22.6066  -48.5055 H         1 UNK         0.0851 
     82 H82        18.8977  -22.0825  -47.9040 H         1 UNK         0.0851 
     83 H83        19.0385  -23.6001  -48.7897 H         1 UNK         0.0851 
     84 H84        17.7725  -24.3451  -46.8196 H         1 UNK         0.2976 
     85 H85        23.7907  -28.3415  -45.3413 H         1 UNK         0.3116 
     86 H86        25.2877  -26.7055  -43.4241 H         1 UNK         0.0646 
     87 H87        25.8001  -29.5252  -44.5132 H         1 UNK         0.0847 
     88 H88        26.9168  -28.5700  -43.5510 H         1 UNK         0.0847 
     89 H89        26.4786  -28.0319  -45.1623 H         1 UNK         0.0847 
     90 H90        22.9361  -26.9229  -42.2640 H         1 UNK         0.3040 
     91 H91        22.5666  -29.2765  -40.6269 H         1 UNK         0.1015 
     92 H92        20.7191  -27.9111  -39.6156 H         1 UNK         0.0786 
     93 H93        20.6488  -27.8683  -41.3689 H         1 UNK         0.0786 
     94 H94        21.2876  -26.4887  -40.4777 H         1 UNK         0.0786 
     95 H95        24.0756  -28.2157  -37.4761 H         1 UNK         0.3172 
     96 H96        21.8445  -29.7827  -38.5090 H         1 UNK         0.0595 
     97 H97        23.5289  -30.0459  -35.9708 H         1 UNK         0.0839 
     98 H98        22.0379  -30.9084  -36.3183 H         1 UNK         0.0839 
     99 H99        22.0059  -29.1668  -36.1140 H         1 UNK         0.0839 
    100 H100       25.2193  -29.9334  -39.0207 H         1 UNK         0.2998 
    101 H101       25.8674  -32.6256  -38.7098 H         1 UNK         0.0822 
    102 H102       27.5522  -30.8484  -39.0644 H         1 UNK         0.0787 
    103 H103       27.7616  -32.1145  -40.2621 H         1 UNK         0.0787 
    104 H104       26.9934  -30.6015  -40.7189 H         1 UNK         0.0787 
    105 H105       24.4090  -31.0608  -41.5537 H         1 UNK         0.3055 
    106 H106       24.3308  -33.2363  -43.3264 H         1 UNK         0.1106 
    107 H107       23.7795  -30.9390  -44.0125 H         1 UNK         0.0828 
    108 H108       22.3997  -31.9629  -44.3614 H         1 UNK         0.0828 
    109 H109       22.3691  -30.9041  -42.9564 H         1 UNK         0.0828 
    110 H110       22.5225  -32.8971  -40.3798 H         1 UNK         0.2931 
    111 H111       20.6292  -35.0694  -41.1108 H         1 UNK         0.0412 
    112 H112       23.7613  -34.9979  -39.9471 H         1 UNK         0.3472 
    113 H113       23.6065  -36.3332  -38.8312 H         1 UNK         0.3472 
    114 H114       19.4501  -34.3708  -38.9629 H         1 UNK         0.0970 
    115 H115       20.5148  -32.9979  -38.8561 H         1 UNK         0.0970 
    116 H116       19.6033  -30.7088  -39.7166 H         1 UNK         0.0612 
    117 H117       20.6797  -31.1859  -41.0113 H         1 UNK         0.0612 
@<TRIPOS>BOND
     1    1    2 1    
     2    1   62 1    
     3    1   63 1    
     4    1   64 1    
     5    2    3 2    
     6    2    4 am   BACKBONE|DICT|INTERRES
     7    4    5 1    
     8    4   65 1    
     9    5    6 1    
    10    5   25 1    
    11    5   66 1    
    12    6    7 1    
    13    6   67 1    
    14    6   68 1    
    15    7    8 1    
    16    8    9 1    
    17    8   69 1    
    18    8   70 1    
    19    9   10 ar   
    20    9   14 ar   
    21   10   11 ar   
    22   10   71 1    
    23   11   12 ar   
    24   11   61 1    
    25   12   13 ar   
    26   12   72 1    
    27   13   14 ar   
    28   13   15 1    
    29   14   73 1    
    30   15   16 1    
    31   15   74 1    
    32   15   75 1    
    33   16   17 1    
    34   17   18 1    
    35   17   76 1    
    36   17   77 1    
    37   18   19 1    
    38   18   27 1    
    39   18   78 1    
    40   19   20 am   BACKBONE|DICT|INTERRES
    41   19   79 1    
    42   20   21 2    
    43   20   22 1    
    44   22   23 1    
    45   22   24 1    
    46   22   80 1    
    47   23   81 1    
    48   23   82 1    
    49   23   83 1    
    50   24   25 am   BACKBONE|DICT|INTERRES
    51   24   84 1    
    52   25   26 2    
    53   27   28 2    
    54   27   29 am   BACKBONE|DICT|INTERRES
    55   29   30 1    
    56   29   85 1    
    57   30   31 1    
    58   30   32 1    
    59   30   86 1    
    60   31   87 1    
    61   31   88 1    
    62   31   89 1    
    63   32   33 2    
    64   32   34 am   BACKBONE|DICT|INTERRES
    65   34   35 1    
    66   34   90 1    
    67   35   36 1    
    68   35   37 1    
    69   35   91 1    
    70   36   92 1    
    71   36   93 1    
    72   36   94 1    
    73   37   38 2    
    74   37   39 am   BACKBONE|DICT|INTERRES
    75   39   40 1    
    76   39   95 1    
    77   40   41 1    
    78   40   42 1    
    79   40   96 1    
    80   41   97 1    
    81   41   98 1    
    82   41   99 1    
    83   42   43 2    
    84   42   44 am   BACKBONE|DICT|INTERRES
    85   44   45 1    
    86   44  100 1    
    87   45   46 1    
    88   45   47 1    
    89   45  101 1    
    90   46  102 1    
    91   46  103 1    
    92   46  104 1    
    93   47   48 2    
    94   47   49 am   BACKBONE|DICT|INTERRES
    95   49   50 1    
    96   49  105 1    
    97   50   51 1    
    98   50   52 1    
    99   50  106 1    
   100   51  107 1    
   101   51  108 1    
   102   51  109 1    
   103   52   53 2    
   104   52   54 am   BACKBONE|DICT|INTERRES
   105   54   55 1    
   106   54  110 1    
   107   55   56 1    
   108   55   59 1    
   109   55  111 1    
   110   56   57 am   BACKBONE|DICT|INTERRES
   111   56   58 2    
   112   57  112 1    
   113   57  113 1    
   114   59   60 1    
   115   59  114 1    
   116   59  115 1    
   117   60   61 1    
   118   61  116 1    
   119   61  117 1    
@<TRIPOS>SUBSTRUCTURE
     1 UNK         1 GROUP             0       ****    0 ROOT    
