@<TRIPOS>MOLECULE
3R8
117   119    1
SMALL
USER_CHARGES


@<TRIPOS>ATOM
      1 CA         17.8962  -23.4641  -40.3256 C.3       0 UNK        -0.2013 
      2 C          17.8196  -23.8759  -41.7883 C.2       0 UNK         0.4866 
      3 O          17.6329  -23.0224  -42.6564 O.2       0 UNK        -0.5176 
      4 N          17.9514  -25.1790  -42.0646 N.am      1 UNK        -0.4884 
      5 CA         17.9627  -25.7634  -43.4103 C.3       1 UNK         0.0853 
      6 C6         17.9135  -27.3119  -43.3671 C.3       10 UNK        -0.0849 
      7 S7         16.4551  -27.9629  -42.4806 S.3       10 UNK        -0.2776 
      8 C8         15.5054  -28.7677  -43.8149 C.3       10 UNK         0.0316 
      9 C9         16.2799  -29.9034  -44.4723 C.ar      10 UNK        -0.0863 
     10 C10        16.6121  -31.0488  -43.7405 C.ar      10 UNK        -0.1009 
     11 C11        17.3532  -32.0763  -44.3313 C.ar      10 UNK        -0.0712 
     12 C12        17.7539  -31.9569  -45.6647 C.ar      10 UNK        -0.0894 
     13 C13        17.4239  -30.8208  -46.4086 C.ar      10 UNK        -0.0745 
     14 C14        16.6757  -29.8025  -45.8106 C.ar      10 UNK        -0.0972 
     15 C15        17.9003  -30.6898  -47.8499 C.3       10 UNK         0.0209 
     16 S16        19.0476  -29.2922  -48.0905 S.3       10 UNK        -0.2568 
     17 C17        20.3377  -29.6318  -46.8404 C.3       10 UNK        -0.0983 
     18 CA         21.3375  -28.4572  -46.6593 C.3       3 UNK         0.0876 
     19 N          20.6306  -27.1892  -46.4444 N.am      3 UNK        -0.4424 
     20 C          21.0906  -25.9560  -46.6885 C.2       2 UNK         0.4918 
     21 O          22.2395  -25.7202  -47.0621 O.2       2 UNK        -0.4875 
     22 CA         20.1117  -24.7880  -46.4600 C.3       2 UNK         0.0481 
     23 CB         19.5073  -24.3330  -47.7977 C.3       2 UNK        -0.1831 
     24 N          19.0280  -25.1100  -45.5237 N.am      2 UNK        -0.4498 
     25 C          19.2035  -25.3124  -44.2101 C.2       1 UNK         0.5027 
     26 O          20.2979  -25.2192  -43.6479 O.2       1 UNK        -0.4969 
     27 C          22.3809  -28.7510  -45.5511 C.2       3 UNK         0.5005 
     28 O          22.4571  -29.8837  -45.0723 O.2       3 UNK        -0.5279 
     29 N          23.1633  -27.7304  -45.1659 N.am      4 UNK        -0.4463 
     30 CA         24.2112  -27.7355  -44.1378 C.3       4 UNK         0.0283 
     31 CB         25.4115  -28.5956  -44.5892 C.3       4 UNK        -0.1875 
     32 C          23.6814  -28.1371  -42.7475 C.2       4 UNK         0.4949 
     33 O          24.1452  -29.1233  -42.1732 O.2       4 UNK        -0.5039 
     34 N          22.7157  -27.3607  -42.2318 N.am      5 UNK        -0.4663 
     35 CA         22.1155  -27.5428  -40.9038 C.3       5 UNK         0.0242 
     36 CB         21.0691  -26.4468  -40.6565 C.3       5 UNK        -0.1982 
     37 C          23.1451  -27.5521  -39.7587 C.2       5 UNK         0.5017 
     38 O          24.1591  -26.8546  -39.8364 O.2       5 UNK        -0.5012 
     39 N          22.8587  -28.3526  -38.7243 N.am      6 UNK        -0.4439 
     40 CA         23.6655  -28.6399  -37.5291 C.3       6 UNK         0.0297 
     41 CB         24.0767  -27.3632  -36.7688 C.3       6 UNK        -0.2006 
     42 C          24.8731  -29.5553  -37.8001 C.2       6 UNK         0.4892 
     43 O          25.1680  -30.4054  -36.9591 O.2       6 UNK        -0.5089 
     44 N          25.5236  -29.4115  -38.9636 N.am      7 UNK        -0.4243 
     45 CA         26.5102  -30.3662  -39.4777 C.3       7 UNK         0.0196 
     46 CB         27.3197  -29.7214  -40.6143 C.3       7 UNK        -0.2007 
     47 C          25.8298  -31.6651  -39.9452 C.2       7 UNK         0.5020 
     48 O          26.3371  -32.7532  -39.6719 O.2       7 UNK        -0.5147 
     49 N          24.6730  -31.5212  -40.5988 N.am      8 UNK        -0.4734 
     50 CA         23.7356  -32.5825  -40.9471 C.3       8 UNK         0.0238 
     51 CB         23.8010  -32.8221  -42.4653 C.3       8 UNK        -0.1912 
     52 C          22.3241  -32.1429  -40.5314 C.2       8 UNK         0.5038 
     53 O          22.0868  -30.9490  -40.3305 O.2       8 UNK        -0.5046 
     54 N          21.4064  -33.1129  -40.4298 N.am      9 UNK        -0.4200 
     55 CA         19.9619  -32.9065  -40.2015 C.3       9 UNK         0.0839 
     56 C          19.5879  -32.2537  -38.8340 C.2       9 UNK         0.5513 
     57 N          20.4666  -32.2584  -37.8387 N.am      9 UNK        -0.7519 
     58 O          18.4734  -31.7690  -38.6554 O.2       9 UNK        -0.4960 
     59 C59        19.2689  -32.2179  -41.4153 C.3       10 UNK        -0.0876 
     60 S60        19.4519  -33.2087  -42.9403 S.3       10 UNK        -0.2414 
     61 C61        17.7366  -33.3160  -43.5385 C.3       10 UNK         0.0169 
     62 H62        18.7129  -22.7580  -40.1779 H         1 UNK         0.0903 
     63 H63        16.9679  -22.9807  -40.0223 H         1 UNK         0.0903 
     64 H64        18.0645  -24.3180  -39.6695 H         1 UNK         0.0903 
     65 H65        18.0795  -25.8363  -41.3093 H         1 UNK         0.3096 
     66 H66        17.0711  -25.4021  -43.9279 H         1 UNK         0.1121 
     67 H67        18.8032  -27.7146  -42.8792 H         1 UNK         0.0849 
     68 H68        17.9289  -27.7158  -44.3798 H         1 UNK         0.0849 
     69 H69        14.5775  -29.1633  -43.3994 H         1 UNK         0.0865 
     70 H70        15.2138  -28.0151  -44.5492 H         1 UNK         0.0865 
     71 H71        16.3085  -31.1288  -42.7056 H         1 UNK         0.1346 
     72 H72        18.3393  -32.7463  -46.1165 H         1 UNK         0.1412 
     73 H73        16.4263  -28.9205  -46.3849 H         1 UNK         0.1426 
     74 H74        17.0357  -30.5535  -48.5009 H         1 UNK         0.0716 
     75 H75        18.3921  -31.6057  -48.1814 H         1 UNK         0.0716 
     76 H76        20.8627  -30.5424  -47.1352 H         1 UNK         0.0695 
     77 H77        19.8548  -29.8497  -45.8863 H         1 UNK         0.0695 
     78 H78        21.9029  -28.3664  -47.5895 H         1 UNK         0.0983 
     79 H79        19.6727  -27.2798  -46.1452 H         1 UNK         0.3095 
     80 H80        20.6838  -23.9558  -46.0445 H         1 UNK         0.0454 
     81 H81        18.8682  -23.4593  -47.6692 H         1 UNK         0.0851 
     82 H82        18.9130  -25.1206  -48.2630 H         1 UNK         0.0851 
     83 H83        20.2903  -24.0564  -48.5053 H         1 UNK         0.0851 
     84 H84        18.1016  -25.1959  -45.9180 H         1 UNK         0.2976 
     85 H85        23.0174  -26.8472  -45.6462 H         1 UNK         0.3116 
     86 H86        24.5624  -26.7063  -44.0490 H         1 UNK         0.0646 
     87 H87        25.1462  -29.6499  -44.6757 H         1 UNK         0.0847 
     88 H88        26.2301  -28.5269  -43.8719 H         1 UNK         0.0847 
     89 H89        25.7973  -28.2659  -45.5535 H         1 UNK         0.0847 
     90 H90        22.3813  -26.5746  -42.7723 H         1 UNK         0.3040 
     91 H91        21.6044  -28.5065  -40.9182 H         1 UNK         0.1015 
     92 H92        21.4967  -25.4481  -40.7541 H         1 UNK         0.0786 
     93 H93        20.6399  -26.5245  -39.6565 H         1 UNK         0.0786 
     94 H94        20.2476  -26.5331  -41.3627 H         1 UNK         0.0786 
     95 H95        22.0368  -28.9365  -38.8181 H         1 UNK         0.3172 
     96 H96        22.9994  -29.2013  -36.8718 H         1 UNK         0.0595 
     97 H97        24.8051  -26.7700  -37.3220 H         1 UNK         0.0839 
     98 H98        24.5336  -27.6164  -35.8112 H         1 UNK         0.0839 
     99 H99        23.2150  -26.7296  -36.5593 H         1 UNK         0.0839 
    100 H100       25.2234  -28.6697  -39.5860 H         1 UNK         0.2998 
    101 H101       27.2005  -30.6198  -38.6702 H         1 UNK         0.0822 
    102 H102       27.8400  -28.8268  -40.2720 H         1 UNK         0.0787 
    103 H103       28.0748  -30.4117  -40.9928 H         1 UNK         0.0787 
    104 H104       26.6866  -29.4394  -41.4556 H         1 UNK         0.0787 
    105 H105       24.3381  -30.5845  -40.8140 H         1 UNK         0.3055 
    106 H106       23.9859  -33.5024  -40.4140 H         1 UNK         0.1106 
    107 H107       23.1125  -33.6105  -42.7720 H         1 UNK         0.0828 
    108 H108       23.5358  -31.9223  -43.0241 H         1 UNK         0.0828 
    109 H109       24.8011  -33.1245  -42.7756 H         1 UNK         0.0828 
    110 H110       21.6852  -34.0691  -40.5940 H         1 UNK         0.2931 
    111 H111       19.5432  -33.9111  -40.1293 H         1 UNK         0.0412 
    112 H112       21.3808  -32.6609  -37.9672 H         1 UNK         0.3472 
    113 H113       20.2121  -31.8504  -36.9530 H         1 UNK         0.3472 
    114 H114       19.6825  -31.2231  -41.5888 H         1 UNK         0.0970 
    115 H115       18.2069  -32.0675  -41.2168 H         1 UNK         0.0970 
    116 H116       17.0526  -33.4781  -42.7040 H         1 UNK         0.0612 
    117 H117       17.6460  -34.1953  -44.1779 H         1 UNK         0.0612 
@<TRIPOS>BOND
     1    1    2 1    
     2    1   62 1    
     3    1   63 1    
     4    1   64 1    
     5    2    3 2    
     6    2    4 am   BACKBONE|DICT|INTERRES
     7    4    5 1    
     8    4   65 1    
     9    5    6 1    
    10    5   25 1    
    11    5   66 1    
    12    6    7 1    
    13    6   67 1    
    14    6   68 1    
    15    7    8 1    
    16    8    9 1    
    17    8   69 1    
    18    8   70 1    
    19    9   10 ar   
    20    9   14 ar   
    21   10   11 ar   
    22   10   71 1    
    23   11   12 ar   
    24   11   61 1    
    25   12   13 ar   
    26   12   72 1    
    27   13   14 ar   
    28   13   15 1    
    29   14   73 1    
    30   15   16 1    
    31   15   74 1    
    32   15   75 1    
    33   16   17 1    
    34   17   18 1    
    35   17   76 1    
    36   17   77 1    
    37   18   19 1    
    38   18   27 1    
    39   18   78 1    
    40   19   20 am   BACKBONE|DICT|INTERRES
    41   19   79 1    
    42   20   21 2    
    43   20   22 1    
    44   22   23 1    
    45   22   24 1    
    46   22   80 1    
    47   23   81 1    
    48   23   82 1    
    49   23   83 1    
    50   24   25 am   BACKBONE|DICT|INTERRES
    51   24   84 1    
    52   25   26 2    
    53   27   28 2    
    54   27   29 am   BACKBONE|DICT|INTERRES
    55   29   30 1    
    56   29   85 1    
    57   30   31 1    
    58   30   32 1    
    59   30   86 1    
    60   31   87 1    
    61   31   88 1    
    62   31   89 1    
    63   32   33 2    
    64   32   34 am   BACKBONE|DICT|INTERRES
    65   34   35 1    
    66   34   90 1    
    67   35   36 1    
    68   35   37 1    
    69   35   91 1    
    70   36   92 1    
    71   36   93 1    
    72   36   94 1    
    73   37   38 2    
    74   37   39 am   BACKBONE|DICT|INTERRES
    75   39   40 1    
    76   39   95 1    
    77   40   41 1    
    78   40   42 1    
    79   40   96 1    
    80   41   97 1    
    81   41   98 1    
    82   41   99 1    
    83   42   43 2    
    84   42   44 am   BACKBONE|DICT|INTERRES
    85   44   45 1    
    86   44  100 1    
    87   45   46 1    
    88   45   47 1    
    89   45  101 1    
    90   46  102 1    
    91   46  103 1    
    92   46  104 1    
    93   47   48 2    
    94   47   49 am   BACKBONE|DICT|INTERRES
    95   49   50 1    
    96   49  105 1    
    97   50   51 1    
    98   50   52 1    
    99   50  106 1    
   100   51  107 1    
   101   51  108 1    
   102   51  109 1    
   103   52   53 2    
   104   52   54 am   BACKBONE|DICT|INTERRES
   105   54   55 1    
   106   54  110 1    
   107   55   56 1    
   108   55   59 1    
   109   55  111 1    
   110   56   57 am   BACKBONE|DICT|INTERRES
   111   56   58 2    
   112   57  112 1    
   113   57  113 1    
   114   59   60 1    
   115   59  114 1    
   116   59  115 1    
   117   60   61 1    
   118   61  116 1    
   119   61  117 1    
@<TRIPOS>SUBSTRUCTURE
     1 UNK         1 GROUP             0       ****    0 ROOT    
