@<TRIPOS>MOLECULE
3R8
117   119    1
SMALL
USER_CHARGES


@<TRIPOS>ATOM
      1 CA         22.9438  -30.5428  -45.7800 C.3       0 UNK        -0.2013 
      2 C          21.6227  -30.1434  -45.1424 C.2       0 UNK         0.4866 
      3 O          21.4423  -30.3018  -43.9358 O.2       0 UNK        -0.5176 
      4 N          20.7042  -29.5927  -45.9449 N.am      1 UNK        -0.4884 
      5 CA         19.4438  -29.0053  -45.4699 C.3       1 UNK         0.0853 
      6 C6         18.3382  -29.0579  -46.5544 C.3       10 UNK        -0.0849 
      7 S7         17.7235  -30.7581  -46.8183 S.3       10 UNK        -0.2776 
      8 C8         16.1174  -30.7183  -45.9499 C.3       10 UNK         0.0316 
      9 C9         16.2885  -30.8177  -44.4400 C.ar      10 UNK        -0.0863 
     10 C10        16.2013  -32.0592  -43.8006 C.ar      10 UNK        -0.1009 
     11 C11        16.3952  -32.1588  -42.4192 C.ar      10 UNK        -0.0712 
     12 C12        16.6825  -31.0097  -41.6791 C.ar      10 UNK        -0.0894 
     13 C13        16.7844  -29.7669  -42.3083 C.ar      10 UNK        -0.0745 
     14 C14        16.5532  -29.6720  -43.6825 C.ar      10 UNK        -0.0972 
     15 C15        17.2155  -28.5464  -41.5113 C.3       10 UNK         0.0209 
     16 S16        18.9800  -28.6901  -41.1026 S.3       10 UNK        -0.2568 
     17 C17        19.3446  -27.1033  -40.2877 C.3       10 UNK        -0.0983 
     18 CA         20.6703  -26.5127  -40.8243 C.3       3 UNK         0.0876 
     19 N          20.5772  -26.1816  -42.2525 N.am      3 UNK        -0.4424 
     20 C          21.5894  -25.8211  -43.0505 C.2       2 UNK         0.4918 
     21 O          22.7288  -25.5909  -42.6428 O.2       2 UNK        -0.4875 
     22 CA         21.2630  -25.7042  -44.5520 C.3       2 UNK         0.0481 
     23 CB         22.4564  -25.1772  -45.3700 C.3       2 UNK        -0.1831 
     24 N          20.8422  -26.9950  -45.1009 N.am      2 UNK        -0.4498 
     25 C          19.6409  -27.5689  -44.9323 C.2       1 UNK         0.5027 
     26 O          18.7091  -27.0071  -44.3540 O.2       1 UNK        -0.4969 
     27 C          21.1794  -25.3624  -39.9303 C.2       3 UNK         0.5005 
     28 O          21.6777  -25.6313  -38.8364 O.2       3 UNK        -0.5279 
     29 N          21.0894  -24.1146  -40.4137 N.am      4 UNK        -0.4463 
     30 CA         21.7045  -22.9361  -39.7974 C.3       4 UNK         0.0283 
     31 CB         21.1625  -21.6682  -40.4768 C.3       4 UNK        -0.1875 
     32 C          23.2458  -22.9559  -39.8497 C.2       4 UNK         0.4949 
     33 O          23.8780  -22.3571  -38.9793 O.2       4 UNK        -0.5039 
     34 N          23.8196  -23.6332  -40.8547 N.am      5 UNK        -0.4663 
     35 CA         25.2585  -23.8439  -41.0051 C.3       5 UNK         0.0242 
     36 CB         25.6496  -23.7359  -42.4898 C.3       5 UNK        -0.1982 
     37 C          25.6591  -25.2043  -40.4183 C.2       5 UNK         0.5017 
     38 O          26.5094  -25.2465  -39.5284 O.2       5 UNK        -0.5012 
     39 N          25.0326  -26.2836  -40.9060 N.am      6 UNK        -0.4439 
     40 CA         25.2466  -27.6587  -40.4568 C.3       6 UNK         0.0297 
     41 CB         26.6073  -28.1951  -40.9439 C.3       6 UNK        -0.2006 
     42 C          24.1051  -28.5306  -40.9860 C.2       6 UNK         0.4892 
     43 O          23.8084  -28.4711  -42.1797 O.2       6 UNK        -0.5089 
     44 N          23.4933  -29.3201  -40.0968 N.am      7 UNK        -0.4243 
     45 CA         22.3945  -30.2269  -40.4219 C.3       7 UNK         0.0196 
     46 CB         21.4753  -30.3603  -39.1953 C.3       7 UNK        -0.2007 
     47 C          22.9414  -31.5988  -40.8380 C.2       7 UNK         0.5020 
     48 O          23.6566  -32.2288  -40.0558 O.2       7 UNK        -0.5147 
     49 N          22.5741  -32.0485  -42.0396 N.am      8 UNK        -0.4734 
     50 CA         22.8974  -33.3606  -42.5954 C.3       8 UNK         0.0238 
     51 CB         24.3429  -33.3710  -43.1358 C.3       8 UNK        -0.1912 
     52 C          21.8486  -33.6856  -43.6680 C.2       8 UNK         0.5038 
     53 O          22.1668  -33.6367  -44.8561 O.2       8 UNK        -0.5046 
     54 N          20.6149  -33.9446  -43.2077 N.am      9 UNK        -0.4200 
     55 CA         19.3563  -34.1189  -43.9602 C.3       9 UNK         0.0839 
     56 C          19.4920  -34.7759  -45.3628 C.2       9 UNK         0.5513 
     57 N          19.0284  -34.1104  -46.4122 N.am      9 UNK        -0.7519 
     58 O          19.9612  -35.9049  -45.4920 O.2       9 UNK        -0.4960 
     59 C59        18.3209  -34.9213  -43.1259 C.3       10 UNK        -0.0876 
     60 S60        17.9806  -34.2150  -41.4774 S.3       10 UNK        -0.2414 
     61 C61        16.3221  -33.5038  -41.7157 C.3       10 UNK         0.0169 
     62 H62        23.2258  -29.8511  -46.5733 H         1 UNK         0.0903 
     63 H63        23.7393  -30.5387  -45.0351 H         1 UNK         0.0903 
     64 H64        22.8763  -31.5424  -46.2064 H         1 UNK         0.0903 
     65 H65        20.8817  -29.5204  -46.9373 H         1 UNK         0.3096 
     66 H66        19.1021  -29.5876  -44.6113 H         1 UNK         0.1121 
     67 H67        18.7154  -28.6725  -47.5032 H         1 UNK         0.0849 
     68 H68        17.4933  -28.4165  -46.2990 H         1 UNK         0.0849 
     69 H69        15.5682  -29.8130  -46.2129 H         1 UNK         0.0865 
     70 H70        15.5083  -31.5497  -46.3083 H         1 UNK         0.0865 
     71 H71        15.9973  -32.9495  -44.3796 H         1 UNK         0.1346 
     72 H72        16.8684  -31.0879  -40.6165 H         1 UNK         0.1412 
     73 H73        16.6271  -28.7093  -44.1679 H         1 UNK         0.1426 
     74 H74        16.6288  -28.4702  -40.5948 H         1 UNK         0.0716 
     75 H75        17.0441  -27.6304  -42.0790 H         1 UNK         0.0716 
     76 H76        19.4047  -27.2940  -39.2143 H         1 UNK         0.0695 
     77 H77        18.5202  -26.4033  -40.4346 H         1 UNK         0.0695 
     78 H78        21.4317  -27.2901  -40.7441 H         1 UNK         0.0983 
     79 H79        19.6897  -26.3890  -42.6991 H         1 UNK         0.3095 
     80 H80        20.4440  -24.9899  -44.6572 H         1 UNK         0.0454 
     81 H81        22.1959  -25.0573  -46.4216 H         1 UNK         0.0851 
     82 H82        23.3154  -25.8469  -45.3102 H         1 UNK         0.0851 
     83 H83        22.7796  -24.2014  -45.0048 H         1 UNK         0.0851 
     84 H84        21.5589  -27.5465  -45.5491 H         1 UNK         0.2976 
     85 H85        20.6516  -23.9854  -41.3143 H         1 UNK         0.3116 
     86 H86        21.4105  -22.9125  -38.7458 H         1 UNK         0.0646 
     87 H87        21.4145  -21.6376  -41.5376 H         1 UNK         0.0847 
     88 H88        21.5815  -20.7716  -40.0177 H         1 UNK         0.0847 
     89 H89        20.0785  -21.5994  -40.3850 H         1 UNK         0.0847 
     90 H90        23.2283  -24.1477  -41.5006 H         1 UNK         0.3040 
     91 H91        25.8074  -23.0715  -40.4612 H         1 UNK         0.1015 
     92 H92        25.1340  -24.4708  -43.1087 H         1 UNK         0.0786 
     93 H93        26.7209  -23.8937  -42.6216 H         1 UNK         0.0786 
     94 H94        25.4173  -22.7474  -42.8862 H         1 UNK         0.0786 
     95 H95        24.3201  -26.1686  -41.6250 H         1 UNK         0.3172 
     96 H96        25.2269  -27.6726  -39.3648 H         1 UNK         0.0595 
     97 H97        26.7427  -29.2374  -40.6520 H         1 UNK         0.0839 
     98 H98        27.4388  -27.6327  -40.5196 H         1 UNK         0.0839 
     99 H99        26.6903  -28.1472  -42.0305 H         1 UNK         0.0839 
    100 H100       23.8376  -29.3555  -39.1479 H         1 UNK         0.2998 
    101 H101       21.8067  -29.8084  -41.2424 H         1 UNK         0.0822 
    102 H102       21.0834  -29.3912  -38.8862 H         1 UNK         0.0787 
    103 H103       20.6194  -30.9978  -39.4213 H         1 UNK         0.0787 
    104 H104       21.9939  -30.7987  -38.3418 H         1 UNK         0.0787 
    105 H105       22.0265  -31.4375  -42.6497 H         1 UNK         0.3055 
    106 H106       22.8164  -34.1177  -41.8120 H         1 UNK         0.1106 
    107 H107       24.5799  -34.3314  -43.5953 H         1 UNK         0.0828 
    108 H108       24.4976  -32.5999  -43.8906 H         1 UNK         0.0828 
    109 H109       25.0680  -33.2073  -42.3387 H         1 UNK         0.0828 
    110 H110       20.4877  -33.9398  -42.2063 H         1 UNK         0.2931 
    111 H111       18.9626  -33.1101  -44.0991 H         1 UNK         0.0412 
    112 H112       18.6444  -33.1816  -46.3158 H         1 UNK         0.3472 
    113 H113       19.0933  -34.5316  -47.3256 H         1 UNK         0.3472 
    114 H114       18.6750  -35.9430  -42.9744 H         1 UNK         0.0970 
    115 H115       17.3823  -35.0161  -43.6749 H         1 UNK         0.0970 
    116 H116       15.6859  -34.1992  -42.2651 H         1 UNK         0.0612 
    117 H117       15.8548  -33.3764  -40.7381 H         1 UNK         0.0612 
@<TRIPOS>BOND
     1    1    2 1    
     2    1   62 1    
     3    1   63 1    
     4    1   64 1    
     5    2    3 2    
     6    2    4 am   BACKBONE|DICT|INTERRES
     7    4    5 1    
     8    4   65 1    
     9    5    6 1    
    10    5   25 1    
    11    5   66 1    
    12    6    7 1    
    13    6   67 1    
    14    6   68 1    
    15    7    8 1    
    16    8    9 1    
    17    8   69 1    
    18    8   70 1    
    19    9   10 ar   
    20    9   14 ar   
    21   10   11 ar   
    22   10   71 1    
    23   11   12 ar   
    24   11   61 1    
    25   12   13 ar   
    26   12   72 1    
    27   13   14 ar   
    28   13   15 1    
    29   14   73 1    
    30   15   16 1    
    31   15   74 1    
    32   15   75 1    
    33   16   17 1    
    34   17   18 1    
    35   17   76 1    
    36   17   77 1    
    37   18   19 1    
    38   18   27 1    
    39   18   78 1    
    40   19   20 am   BACKBONE|DICT|INTERRES
    41   19   79 1    
    42   20   21 2    
    43   20   22 1    
    44   22   23 1    
    45   22   24 1    
    46   22   80 1    
    47   23   81 1    
    48   23   82 1    
    49   23   83 1    
    50   24   25 am   BACKBONE|DICT|INTERRES
    51   24   84 1    
    52   25   26 2    
    53   27   28 2    
    54   27   29 am   BACKBONE|DICT|INTERRES
    55   29   30 1    
    56   29   85 1    
    57   30   31 1    
    58   30   32 1    
    59   30   86 1    
    60   31   87 1    
    61   31   88 1    
    62   31   89 1    
    63   32   33 2    
    64   32   34 am   BACKBONE|DICT|INTERRES
    65   34   35 1    
    66   34   90 1    
    67   35   36 1    
    68   35   37 1    
    69   35   91 1    
    70   36   92 1    
    71   36   93 1    
    72   36   94 1    
    73   37   38 2    
    74   37   39 am   BACKBONE|DICT|INTERRES
    75   39   40 1    
    76   39   95 1    
    77   40   41 1    
    78   40   42 1    
    79   40   96 1    
    80   41   97 1    
    81   41   98 1    
    82   41   99 1    
    83   42   43 2    
    84   42   44 am   BACKBONE|DICT|INTERRES
    85   44   45 1    
    86   44  100 1    
    87   45   46 1    
    88   45   47 1    
    89   45  101 1    
    90   46  102 1    
    91   46  103 1    
    92   46  104 1    
    93   47   48 2    
    94   47   49 am   BACKBONE|DICT|INTERRES
    95   49   50 1    
    96   49  105 1    
    97   50   51 1    
    98   50   52 1    
    99   50  106 1    
   100   51  107 1    
   101   51  108 1    
   102   51  109 1    
   103   52   53 2    
   104   52   54 am   BACKBONE|DICT|INTERRES
   105   54   55 1    
   106   54  110 1    
   107   55   56 1    
   108   55   59 1    
   109   55  111 1    
   110   56   57 am   BACKBONE|DICT|INTERRES
   111   56   58 2    
   112   57  112 1    
   113   57  113 1    
   114   59   60 1    
   115   59  114 1    
   116   59  115 1    
   117   60   61 1    
   118   61  116 1    
   119   61  117 1    
@<TRIPOS>SUBSTRUCTURE
     1 UNK         1 GROUP             0       ****    0 ROOT    
