@<TRIPOS>MOLECULE
3R8
117   119    1
SMALL
USER_CHARGES


@<TRIPOS>ATOM
      1 CA         14.2321  -24.9032  -47.9403 C.3       0 UNK        -0.2013 
      2 C          15.4489  -25.3222  -47.1302 C.2       0 UNK         0.4866 
      3 O          16.5615  -25.3460  -47.6586 O.2       0 UNK        -0.5176 
      4 N          15.2554  -25.6462  -45.8456 N.am      1 UNK        -0.4884 
      5 CA         16.2988  -26.0892  -44.9125 C.3       1 UNK         0.0853 
      6 C6         15.7159  -26.9484  -43.7599 C.3       10 UNK        -0.0849 
      7 S7         14.7798  -28.4267  -44.2936 S.3       10 UNK        -0.2776 
      8 C8         15.9288  -29.2971  -45.4209 C.3       10 UNK         0.0316 
      9 C9         17.3370  -29.4845  -44.8603 C.ar      10 UNK        -0.0863 
     10 C10        17.5399  -29.9252  -43.5473 C.ar      10 UNK        -0.1009 
     11 C11        18.8330  -30.0591  -43.0353 C.ar      10 UNK        -0.0712 
     12 C12        19.9311  -29.7932  -43.8569 C.ar      10 UNK        -0.0894 
     13 C13        19.7446  -29.3622  -45.1736 C.ar      10 UNK        -0.0745 
     14 C14        18.4461  -29.2123  -45.6694 C.ar      10 UNK        -0.0972 
     15 C15        20.9454  -29.0526  -46.0582 C.3       10 UNK         0.0209 
     16 S16        21.2615  -27.2620  -46.1988 S.3       10 UNK        -0.2568 
     17 C17        21.7293  -26.8379  -44.4869 C.3       10 UNK        -0.0983 
     18 CA         21.6804  -25.3208  -44.1774 C.3       3 UNK         0.0876 
     19 N          20.3971  -24.7330  -44.5668 N.am      3 UNK        -0.4424 
     20 C          20.0692  -23.4356  -44.5201 C.2       2 UNK         0.4918 
     21 O          20.8313  -22.5517  -44.1261 O.2       2 UNK        -0.4875 
     22 CA         18.6696  -23.0425  -45.0359 C.3       2 UNK         0.0481 
     23 CB         18.7856  -22.2008  -46.3176 C.3       2 UNK        -0.1831 
     24 N          17.7980  -24.1902  -45.3086 N.am      2 UNK        -0.4498 
     25 C          17.1298  -24.8962  -44.3878 C.2       1 UNK         0.5027 
     26 O          17.1472  -24.6283  -43.1852 O.2       1 UNK        -0.4969 
     27 C          21.9808  -25.1179  -42.6786 C.2       3 UNK         0.5005 
     28 O          21.0701  -25.2104  -41.8503 O.2       3 UNK        -0.5279 
     29 N          23.2667  -24.9560  -42.3412 N.am      4 UNK        -0.4463 
     30 CA         23.7770  -24.9751  -40.9672 C.3       4 UNK         0.0283 
     31 CB         25.0920  -24.1757  -40.9068 C.3       4 UNK        -0.1875 
     32 C          23.9452  -26.4293  -40.4855 C.2       4 UNK         0.4949 
     33 O          25.0707  -26.8906  -40.2917 O.2       4 UNK        -0.5039 
     34 N          22.8192  -27.1501  -40.3832 N.am      5 UNK        -0.4663 
     35 CA         22.6404  -28.5695  -40.0275 C.3       5 UNK         0.0242 
     36 CB         23.1529  -28.8621  -38.6041 C.3       5 UNK        -0.1982 
     37 C          23.2208  -29.5859  -41.0316 C.2       5 UNK         0.5017 
     38 O          22.6465  -30.6635  -41.1837 O.2       5 UNK        -0.5012 
     39 N          24.3443  -29.2442  -41.6787 N.am      6 UNK        -0.4439 
     40 CA         25.0917  -30.0298  -42.6717 C.3       6 UNK         0.0297 
     41 CB         24.2721  -30.1825  -43.9707 C.3       6 UNK        -0.2006 
     42 C          25.6009  -31.3855  -42.1392 C.2       6 UNK         0.4892 
     43 O          25.7733  -32.3211  -42.9225 O.2       6 UNK        -0.5089 
     44 N          25.8040  -31.4753  -40.8151 N.am      7 UNK        -0.4243 
     45 CA         26.1838  -32.6429  -40.0041 C.3       7 UNK         0.0196 
     46 CB         27.5677  -33.1867  -40.4088 C.3       7 UNK        -0.2007 
     47 C          25.1359  -33.7726  -39.9682 C.2       7 UNK         0.5020 
     48 O          24.8916  -34.3273  -38.8968 O.2       7 UNK        -0.5147 
     49 N          24.5293  -34.0885  -41.1188 N.am      8 UNK        -0.4734 
     50 CA         23.5509  -35.1600  -41.3272 C.3       8 UNK         0.0238 
     51 CB         23.1681  -35.2067  -42.8153 C.3       8 UNK        -0.1912 
     52 C          22.2897  -35.0522  -40.4542 C.2       8 UNK         0.5038 
     53 O          21.7591  -36.0860  -40.0448 O.2       8 UNK        -0.5046 
     54 N          21.8452  -33.8204  -40.1754 N.am      9 UNK        -0.4200 
     55 CA         20.7133  -33.5347  -39.2794 C.3       9 UNK         0.0839 
     56 C          21.0812  -33.5591  -37.7658 C.2       9 UNK         0.5513 
     57 N          22.3322  -33.7765  -37.3748 N.am      9 UNK        -0.7519 
     58 O          20.2056  -33.3853  -36.9220 O.2       9 UNK        -0.4960 
     59 C59        19.9872  -32.2202  -39.6628 C.3       10 UNK        -0.0876 
     60 S60        19.4022  -32.2114  -41.3919 S.3       10 UNK        -0.2414 
     61 C61        19.0507  -30.4411  -41.5817 C.3       10 UNK         0.0169 
     62 H62        14.1047  -25.5670  -48.7950 H         1 UNK         0.0903 
     63 H63        13.3176  -24.9335  -47.3482 H         1 UNK         0.0903 
     64 H64        14.3617  -23.8877  -48.3136 H         1 UNK         0.0903 
     65 H65        14.3235  -25.5971  -45.4580 H         1 UNK         0.3096 
     66 H66        17.0049  -26.7128  -45.4624 H         1 UNK         0.1121 
     67 H67        15.0489  -26.3459  -43.1404 H         1 UNK         0.0849 
     68 H68        16.5156  -27.2812  -43.0953 H         1 UNK         0.0849 
     69 H69        15.5133  -30.2789  -45.6512 H         1 UNK         0.0865 
     70 H70        15.9592  -28.7534  -46.3665 H         1 UNK         0.0865 
     71 H71        16.6895  -30.1359  -42.9132 H         1 UNK         0.1346 
     72 H72        20.9316  -29.9038  -43.4600 H         1 UNK         0.1412 
     73 H73        18.3041  -28.8736  -46.6871 H         1 UNK         0.1426 
     74 H74        20.7730  -29.4579  -47.0562 H         1 UNK         0.0716 
     75 H75        21.8403  -29.5490  -45.6810 H         1 UNK         0.0716 
     76 H76        22.7309  -27.2297  -44.3043 H         1 UNK         0.0695 
     77 H77        21.0645  -27.3682  -43.8048 H         1 UNK         0.0695 
     78 H78        22.4544  -24.8167  -44.7601 H         1 UNK         0.0983 
     79 H79        19.7107  -25.3833  -44.9157 H         1 UNK         0.3095 
     80 H80        18.2015  -22.4249  -44.2667 H         1 UNK         0.0454 
     81 H81        19.2502  -22.7629  -47.1288 H         1 UNK         0.0851 
     82 H82        19.3924  -21.3101  -46.1490 H         1 UNK         0.0851 
     83 H83        17.8077  -21.8628  -46.6607 H         1 UNK         0.0851 
     84 H84        17.6779  -24.4630  -46.2807 H         1 UNK         0.2976 
     85 H85        23.9628  -24.9298  -43.0734 H         1 UNK         0.3116 
     86 H86        23.0602  -24.4862  -40.3037 H         1 UNK         0.0646 
     87 H87        25.8589  -24.6020  -41.5548 H         1 UNK         0.0847 
     88 H88        25.4935  -24.1632  -39.8926 H         1 UNK         0.0847 
     89 H89        24.9394  -23.1384  -41.2053 H         1 UNK         0.0847 
     90 H90        21.9654  -26.6629  -40.6404 H         1 UNK         0.3040 
     91 H91        21.5623  -28.7317  -40.0209 H         1 UNK         0.1015 
     92 H92        24.2317  -28.7281  -38.5205 H         1 UNK         0.0786 
     93 H93        22.9315  -29.8906  -38.3144 H         1 UNK         0.0786 
     94 H94        22.6771  -28.2109  -37.8709 H         1 UNK         0.0786 
     95 H95        24.7646  -28.3600  -41.3987 H         1 UNK         0.3172 
     96 H96        25.9831  -29.4481  -42.9099 H         1 UNK         0.0595 
     97 H97        23.3772  -30.7862  -43.8164 H         1 UNK         0.0839 
     98 H98        24.8586  -30.6667  -44.7525 H         1 UNK         0.0839 
     99 H99        23.9643  -29.2138  -44.3601 H         1 UNK         0.0839 
    100 H100       25.6056  -30.6407  -40.2815 H         1 UNK         0.2998 
    101 H101       26.2679  -32.2708  -38.9816 H         1 UNK         0.0822 
    102 H102       28.3281  -32.4070  -40.3658 H         1 UNK         0.0787 
    103 H103       27.8829  -33.9845  -39.7349 H         1 UNK         0.0787 
    104 H104       27.5671  -33.5994  -41.4181 H         1 UNK         0.0787 
    105 H105       24.8249  -33.5674  -41.9417 H         1 UNK         0.3055 
    106 H106       24.0412  -36.1006  -41.0676 H         1 UNK         0.1106 
    107 H107       22.7056  -34.2737  -43.1410 H         1 UNK         0.0828 
    108 H108       22.4567  -36.0102  -43.0119 H         1 UNK         0.0828 
    109 H109       24.0400  -35.3862  -43.4447 H         1 UNK         0.0828 
    110 H110       22.3290  -33.0190  -40.5588 H         1 UNK         0.2931 
    111 H111       19.9829  -34.3362  -39.4070 H         1 UNK         0.0412 
    112 H112       23.0726  -33.9528  -38.0442 H         1 UNK         0.3472 
    113 H113       22.5398  -33.7921  -36.3889 H         1 UNK         0.3472 
    114 H114       20.6513  -31.3695  -39.5020 H         1 UNK         0.0970 
    115 H115       19.1206  -32.0574  -39.0190 H         1 UNK         0.0970 
    116 H116       18.1777  -30.1817  -40.9808 H         1 UNK         0.0612 
    117 H117       19.8814  -29.8591  -41.1841 H         1 UNK         0.0612 
@<TRIPOS>BOND
     1    1    2 1    
     2    1   62 1    
     3    1   63 1    
     4    1   64 1    
     5    2    3 2    
     6    2    4 am   BACKBONE|DICT|INTERRES
     7    4    5 1    
     8    4   65 1    
     9    5    6 1    
    10    5   25 1    
    11    5   66 1    
    12    6    7 1    
    13    6   67 1    
    14    6   68 1    
    15    7    8 1    
    16    8    9 1    
    17    8   69 1    
    18    8   70 1    
    19    9   10 ar   
    20    9   14 ar   
    21   10   11 ar   
    22   10   71 1    
    23   11   12 ar   
    24   11   61 1    
    25   12   13 ar   
    26   12   72 1    
    27   13   14 ar   
    28   13   15 1    
    29   14   73 1    
    30   15   16 1    
    31   15   74 1    
    32   15   75 1    
    33   16   17 1    
    34   17   18 1    
    35   17   76 1    
    36   17   77 1    
    37   18   19 1    
    38   18   27 1    
    39   18   78 1    
    40   19   20 am   BACKBONE|DICT|INTERRES
    41   19   79 1    
    42   20   21 2    
    43   20   22 1    
    44   22   23 1    
    45   22   24 1    
    46   22   80 1    
    47   23   81 1    
    48   23   82 1    
    49   23   83 1    
    50   24   25 am   BACKBONE|DICT|INTERRES
    51   24   84 1    
    52   25   26 2    
    53   27   28 2    
    54   27   29 am   BACKBONE|DICT|INTERRES
    55   29   30 1    
    56   29   85 1    
    57   30   31 1    
    58   30   32 1    
    59   30   86 1    
    60   31   87 1    
    61   31   88 1    
    62   31   89 1    
    63   32   33 2    
    64   32   34 am   BACKBONE|DICT|INTERRES
    65   34   35 1    
    66   34   90 1    
    67   35   36 1    
    68   35   37 1    
    69   35   91 1    
    70   36   92 1    
    71   36   93 1    
    72   36   94 1    
    73   37   38 2    
    74   37   39 am   BACKBONE|DICT|INTERRES
    75   39   40 1    
    76   39   95 1    
    77   40   41 1    
    78   40   42 1    
    79   40   96 1    
    80   41   97 1    
    81   41   98 1    
    82   41   99 1    
    83   42   43 2    
    84   42   44 am   BACKBONE|DICT|INTERRES
    85   44   45 1    
    86   44  100 1    
    87   45   46 1    
    88   45   47 1    
    89   45  101 1    
    90   46  102 1    
    91   46  103 1    
    92   46  104 1    
    93   47   48 2    
    94   47   49 am   BACKBONE|DICT|INTERRES
    95   49   50 1    
    96   49  105 1    
    97   50   51 1    
    98   50   52 1    
    99   50  106 1    
   100   51  107 1    
   101   51  108 1    
   102   51  109 1    
   103   52   53 2    
   104   52   54 am   BACKBONE|DICT|INTERRES
   105   54   55 1    
   106   54  110 1    
   107   55   56 1    
   108   55   59 1    
   109   55  111 1    
   110   56   57 am   BACKBONE|DICT|INTERRES
   111   56   58 2    
   112   57  112 1    
   113   57  113 1    
   114   59   60 1    
   115   59  114 1    
   116   59  115 1    
   117   60   61 1    
   118   61  116 1    
   119   61  117 1    
@<TRIPOS>SUBSTRUCTURE
     1 UNK         1 GROUP             0       ****    0 ROOT    
