@<TRIPOS>MOLECULE
3R8
117   119    1
SMALL
USER_CHARGES


@<TRIPOS>ATOM
      1 CA         15.5802  -21.7841  -45.6345 C.3       0 UNK        -0.2013 
      2 C          16.2380  -23.0858  -46.0674 C.2       0 UNK         0.4866 
      3 O          16.5489  -23.2498  -47.2473 O.2       0 UNK        -0.5176 
      4 N          16.4455  -24.0129  -45.1225 N.am      1 UNK        -0.4884 
      5 CA         17.0755  -25.3203  -45.3471 C.3       1 UNK         0.0853 
      6 C6         16.9251  -26.2451  -44.1087 C.3       10 UNK        -0.0849 
      7 S7         15.3725  -27.2017  -44.1489 S.3       10 UNK        -0.2776 
      8 C8         15.6367  -28.4496  -42.8296 C.3       10 UNK         0.0316 
      9 C9         16.8868  -29.3220  -42.9811 C.ar      10 UNK        -0.0863 
     10 C10        17.5135  -29.8245  -41.8333 C.ar      10 UNK        -0.1009 
     11 C11        18.6953  -30.5679  -41.9317 C.ar      10 UNK        -0.0712 
     12 C12        19.2488  -30.8124  -43.1886 C.ar      10 UNK        -0.0894 
     13 C13        18.6254  -30.3402  -44.3430 C.ar      10 UNK        -0.0745 
     14 C14        17.4327  -29.6210  -44.2360 C.ar      10 UNK        -0.0972 
     15 C15        19.2508  -30.5769  -45.7061 C.3       10 UNK         0.0209 
     16 S16        20.0233  -29.0594  -46.3468 S.3       10 UNK        -0.2568 
     17 C17        21.6270  -28.9966  -45.4718 C.3       10 UNK        -0.0983 
     18 CA         21.8333  -27.7917  -44.5065 C.3       3 UNK         0.0876 
     19 N          21.2754  -26.5315  -45.0223 N.am      3 UNK        -0.4424 
     20 C          21.6070  -25.2986  -44.6132 C.2       2 UNK         0.4918 
     21 O          22.4898  -25.0796  -43.7836 O.2       2 UNK        -0.4875 
     22 CA         20.7701  -24.1182  -45.1478 C.3       2 UNK         0.0481 
     23 CB         21.2191  -23.7042  -46.5626 C.3       2 UNK        -0.1831 
     24 N          19.3138  -24.3311  -45.0626 N.am      2 UNK        -0.4498 
     25 C          18.5588  -25.2008  -45.7529 C.2       1 UNK         0.5027 
     26 O          18.9956  -25.9218  -46.6485 O.2       1 UNK        -0.4969 
     27 C          21.4228  -28.1050  -43.0470 C.2       3 UNK         0.5005 
     28 O          21.9922  -29.0206  -42.4450 O.2       3 UNK        -0.5279 
     29 N          20.5013  -27.3043  -42.4850 N.am      4 UNK        -0.4463 
     30 CA         20.0646  -27.3108  -41.0852 C.3       4 UNK         0.0283 
     31 CB         18.9018  -26.3253  -40.8980 C.3       4 UNK        -0.1875 
     32 C          21.1750  -27.0434  -40.0574 C.2       4 UNK         0.4949 
     33 O          21.0134  -27.4242  -38.8985 O.2       4 UNK        -0.5039 
     34 N          22.3083  -26.4715  -40.4874 N.am      5 UNK        -0.4663 
     35 CA         23.5408  -26.3134  -39.7040 C.3       5 UNK         0.0242 
     36 CB         24.4060  -25.2284  -40.3721 C.3       5 UNK        -0.1982 
     37 C          24.3117  -27.6420  -39.5024 C.2       5 UNK         0.5017 
     38 O          25.5426  -27.6486  -39.5509 O.2       5 UNK        -0.5012 
     39 N          23.5694  -28.7402  -39.2939 N.am      6 UNK        -0.4439 
     40 CA         24.0056  -30.1274  -39.1063 C.3       6 UNK         0.0297 
     41 CB         24.6792  -30.2954  -37.7287 C.3       6 UNK        -0.2006 
     42 C          24.8668  -30.6759  -40.2617 C.2       6 UNK         0.4892 
     43 O          25.7649  -31.4828  -40.0156 O.2       6 UNK        -0.5089 
     44 N          24.5851  -30.2437  -41.5010 N.am      7 UNK        -0.4243 
     45 CA         25.3367  -30.6649  -42.6866 C.3       7 UNK         0.0196 
     46 CB         25.1036  -29.6813  -43.8427 C.3       7 UNK        -0.2007 
     47 C          24.9817  -32.1005  -43.0972 C.2       7 UNK         0.5020 
     48 O          25.8843  -32.9117  -43.3044 O.2       7 UNK        -0.5147 
     49 N          23.6757  -32.3896  -43.1784 N.am      8 UNK        -0.4734 
     50 CA         23.1518  -33.7335  -43.4483 C.3       8 UNK         0.0238 
     51 CB         22.0249  -33.6501  -44.4913 C.3       8 UNK        -0.1912 
     52 C          22.6510  -34.4254  -42.1699 C.2       8 UNK         0.5038 
     53 O          22.6637  -35.6557  -42.1171 O.2       8 UNK        -0.5046 
     54 N          22.2182  -33.6392  -41.1735 N.am      9 UNK        -0.4200 
     55 CA         21.6814  -34.1341  -39.8930 C.3       9 UNK         0.0839 
     56 C          22.7691  -34.4964  -38.8406 C.2       9 UNK         0.5513 
     57 N          24.0463  -34.2184  -39.0723 N.am      9 UNK        -0.7519 
     58 O          22.4459  -35.0498  -37.7929 O.2       9 UNK        -0.4960 
     59 C59        20.6159  -33.1774  -39.2907 C.3       10 UNK        -0.0876 
     60 S60        19.2388  -32.8378  -40.4429 S.3       10 UNK        -0.2414 
     61 C61        19.4298  -31.0474  -40.6889 C.3       10 UNK         0.0169 
     62 H62        16.2368  -20.9420  -45.8515 H         1 UNK         0.0903 
     63 H63        14.6469  -21.6369  -46.1773 H         1 UNK         0.0903 
     64 H64        15.3569  -21.7735  -44.5679 H         1 UNK         0.0903 
     65 H65        16.1383  -23.8282  -44.1778 H         1 UNK         0.3096 
     66 H66        16.5731  -25.7861  -46.1986 H         1 UNK         0.1121 
     67 H67        16.9585  -25.6650  -43.1860 H         1 UNK         0.0849 
     68 H68        17.7514  -26.9544  -44.0424 H         1 UNK         0.0849 
     69 H69        15.6671  -27.9247  -41.8735 H         1 UNK         0.0865 
     70 H70        14.7643  -29.1030  -42.7919 H         1 UNK         0.0865 
     71 H71        17.0994  -29.6101  -40.8574 H         1 UNK         0.1346 
     72 H72        20.1829  -31.3474  -43.2587 H         1 UNK         0.1412 
     73 H73        16.9600  -29.2550  -45.1368 H         1 UNK         0.1426 
     74 H74        18.4757  -30.8969  -46.4040 H         1 UNK         0.0716 
     75 H75        19.9836  -31.3845  -45.6741 H         1 UNK         0.0716 
     76 H76        21.8072  -29.9488  -44.9698 H         1 UNK         0.0695 
     77 H77        22.3895  -28.9445  -46.2504 H         1 UNK         0.0695 
     78 H78        22.9118  -27.6325  -44.4446 H         1 UNK         0.0983 
     79 H79        20.5338  -26.6223  -45.7131 H         1 UNK         0.3095 
     80 H80        20.9732  -23.2717  -44.4898 H         1 UNK         0.0454 
     81 H81        20.6535  -22.8446  -46.9218 H         1 UNK         0.0851 
     82 H82        22.2729  -23.4231  -46.5666 H         1 UNK         0.0851 
     83 H83        21.1004  -24.5096  -47.2877 H         1 UNK         0.0851 
     84 H84        18.8439  -23.7800  -44.3572 H         1 UNK         0.2976 
     85 H85        20.1109  -26.5828  -43.0701 H         1 UNK         0.3116 
     86 H86        19.6928  -28.3073  -40.8625 H         1 UNK         0.0646 
     87 H87        18.6259  -26.2360  -39.8460 H         1 UNK         0.0847 
     88 H88        18.0135  -26.6717  -41.4225 H         1 UNK         0.0847 
     89 H89        19.1499  -25.3255  -41.2555 H         1 UNK         0.0847 
     90 H90        22.3619  -26.2046  -41.4612 H         1 UNK         0.3040 
     91 H91        23.2700  -25.9575  -38.7075 H         1 UNK         0.1015 
     92 H92        23.8591  -24.2906  -40.4730 H         1 UNK         0.0786 
     93 H93        24.7344  -25.5330  -41.3669 H         1 UNK         0.0786 
     94 H94        25.2988  -25.0161  -39.7823 H         1 UNK         0.0786 
     95 H95        22.5678  -28.5844  -39.2360 H         1 UNK         0.3172 
     96 H96        23.0965  -30.7297  -39.1018 H         1 UNK         0.0595 
     97 H97        24.8878  -31.3455  -37.5189 H         1 UNK         0.0839 
     98 H98        24.0397  -29.9288  -36.9259 H         1 UNK         0.0839 
     99 H99        25.6265  -29.7577  -37.6760 H         1 UNK         0.0839 
    100 H100       23.7987  -29.6176  -41.6445 H         1 UNK         0.2998 
    101 H101       26.4012  -30.6394  -42.4416 H         1 UNK         0.0822 
    102 H102       25.7445  -29.9233  -44.6915 H         1 UNK         0.0787 
    103 H103       24.0756  -29.7154  -44.1960 H         1 UNK         0.0787 
    104 H104       25.3281  -28.6564  -43.5466 H         1 UNK         0.0787 
    105 H105       23.0100  -31.6463  -43.0220 H         1 UNK         0.3055 
    106 H106       23.9391  -34.3649  -43.8671 H         1 UNK         0.1106 
    107 H107       22.3475  -33.1198  -45.3876 H         1 UNK         0.0828 
    108 H108       21.7141  -34.6486  -44.8016 H         1 UNK         0.0828 
    109 H109       21.1409  -33.1499  -44.1008 H         1 UNK         0.0828 
    110 H110       22.2503  -32.6400  -41.2880 H         1 UNK         0.2931 
    111 H111       21.1639  -35.0731  -40.1002 H         1 UNK         0.0412 
    112 H112       24.7351  -34.4650  -38.3793 H         1 UNK         0.3472 
    113 H113       24.3346  -33.7628  -39.9234 H         1 UNK         0.3472 
    114 H114       20.1812  -33.6169  -38.3908 H         1 UNK         0.0970 
    115 H115       21.0770  -32.2425  -38.9686 H         1 UNK         0.0970 
    116 H116       20.4879  -30.8003  -40.7902 H         1 UNK         0.0612 
    117 H117       19.0737  -30.5248  -39.7998 H         1 UNK         0.0612 
@<TRIPOS>BOND
     1    1    2 1    
     2    1   62 1    
     3    1   63 1    
     4    1   64 1    
     5    2    3 2    
     6    2    4 am   BACKBONE|DICT|INTERRES
     7    4    5 1    
     8    4   65 1    
     9    5    6 1    
    10    5   25 1    
    11    5   66 1    
    12    6    7 1    
    13    6   67 1    
    14    6   68 1    
    15    7    8 1    
    16    8    9 1    
    17    8   69 1    
    18    8   70 1    
    19    9   10 ar   
    20    9   14 ar   
    21   10   11 ar   
    22   10   71 1    
    23   11   12 ar   
    24   11   61 1    
    25   12   13 ar   
    26   12   72 1    
    27   13   14 ar   
    28   13   15 1    
    29   14   73 1    
    30   15   16 1    
    31   15   74 1    
    32   15   75 1    
    33   16   17 1    
    34   17   18 1    
    35   17   76 1    
    36   17   77 1    
    37   18   19 1    
    38   18   27 1    
    39   18   78 1    
    40   19   20 am   BACKBONE|DICT|INTERRES
    41   19   79 1    
    42   20   21 2    
    43   20   22 1    
    44   22   23 1    
    45   22   24 1    
    46   22   80 1    
    47   23   81 1    
    48   23   82 1    
    49   23   83 1    
    50   24   25 am   BACKBONE|DICT|INTERRES
    51   24   84 1    
    52   25   26 2    
    53   27   28 2    
    54   27   29 am   BACKBONE|DICT|INTERRES
    55   29   30 1    
    56   29   85 1    
    57   30   31 1    
    58   30   32 1    
    59   30   86 1    
    60   31   87 1    
    61   31   88 1    
    62   31   89 1    
    63   32   33 2    
    64   32   34 am   BACKBONE|DICT|INTERRES
    65   34   35 1    
    66   34   90 1    
    67   35   36 1    
    68   35   37 1    
    69   35   91 1    
    70   36   92 1    
    71   36   93 1    
    72   36   94 1    
    73   37   38 2    
    74   37   39 am   BACKBONE|DICT|INTERRES
    75   39   40 1    
    76   39   95 1    
    77   40   41 1    
    78   40   42 1    
    79   40   96 1    
    80   41   97 1    
    81   41   98 1    
    82   41   99 1    
    83   42   43 2    
    84   42   44 am   BACKBONE|DICT|INTERRES
    85   44   45 1    
    86   44  100 1    
    87   45   46 1    
    88   45   47 1    
    89   45  101 1    
    90   46  102 1    
    91   46  103 1    
    92   46  104 1    
    93   47   48 2    
    94   47   49 am   BACKBONE|DICT|INTERRES
    95   49   50 1    
    96   49  105 1    
    97   50   51 1    
    98   50   52 1    
    99   50  106 1    
   100   51  107 1    
   101   51  108 1    
   102   51  109 1    
   103   52   53 2    
   104   52   54 am   BACKBONE|DICT|INTERRES
   105   54   55 1    
   106   54  110 1    
   107   55   56 1    
   108   55   59 1    
   109   55  111 1    
   110   56   57 am   BACKBONE|DICT|INTERRES
   111   56   58 2    
   112   57  112 1    
   113   57  113 1    
   114   59   60 1    
   115   59  114 1    
   116   59  115 1    
   117   60   61 1    
   118   61  116 1    
   119   61  117 1    
@<TRIPOS>SUBSTRUCTURE
     1 UNK         1 GROUP             0       ****    0 ROOT    
