@<TRIPOS>MOLECULE
3R8
117   119    1
SMALL
USER_CHARGES


@<TRIPOS>ATOM
      1 CA         20.7854  -28.6687  -49.3180 C.3       0 UNK        -0.2013 
      2 C          19.7319  -27.9592  -48.4807 C.2       0 UNK         0.4866 
      3 O          19.3701  -26.8243  -48.7916 O.2       0 UNK        -0.5176 
      4 N          19.2527  -28.6233  -47.4208 N.am      1 UNK        -0.4884 
      5 CA         18.2977  -28.1279  -46.4196 C.3       1 UNK         0.0853 
      6 C6         16.8919  -27.8028  -46.9927 C.3       10 UNK        -0.0849 
      7 S7         16.0776  -29.3211  -47.5986 S.3       10 UNK        -0.2776 
      8 C8         14.7758  -29.5931  -46.3506 C.3       10 UNK         0.0316 
      9 C9         15.3248  -29.7347  -44.9352 C.ar      10 UNK        -0.0863 
     10 C10        15.9782  -30.9060  -44.5378 C.ar      10 UNK        -0.1009 
     11 C11        16.4518  -31.0450  -43.2284 C.ar      10 UNK        -0.0712 
     12 C12        16.2570  -30.0066  -42.3118 C.ar      10 UNK        -0.0894 
     13 C13        15.6160  -28.8266  -42.6997 C.ar      10 UNK        -0.0745 
     14 C14        15.1505  -28.6996  -44.0113 C.ar      10 UNK        -0.0972 
     15 C15        15.3930  -27.6946  -41.7058 C.3       10 UNK         0.0209 
     16 S16        16.5565  -26.3204  -41.9837 S.3       10 UNK        -0.2568 
     17 C17        17.8295  -26.6076  -40.7072 C.3       10 UNK        -0.0983 
     18 CA         18.8891  -27.6682  -41.1186 C.3       3 UNK         0.0876 
     19 N          19.5248  -27.4078  -42.4120 N.am      3 UNK        -0.4424 
     20 C          20.3346  -26.3901  -42.7326 C.2       2 UNK         0.4918 
     21 O          20.6527  -25.4887  -41.9571 O.2       2 UNK        -0.4875 
     22 CA         20.8895  -26.3765  -44.1712 C.3       2 UNK         0.0481 
     23 CB         22.3697  -26.7955  -44.1734 C.3       2 UNK        -0.1831 
     24 N          20.1443  -27.2463  -45.0892 N.am      2 UNK        -0.4498 
     25 C          18.9197  -26.9937  -45.5782 C.2       1 UNK         0.5027 
     26 O          18.3047  -25.9452  -45.3785 O.2       1 UNK        -0.4969 
     27 C          19.9550  -27.9704  -40.0442 C.2       3 UNK         0.5005 
     28 O          20.7905  -28.8483  -40.2696 O.2       3 UNK        -0.5279 
     29 N          19.9183  -27.2714  -38.9015 N.am      4 UNK        -0.4463 
     30 CA         20.8511  -27.4254  -37.7813 C.3       4 UNK         0.0283 
     31 CB         20.1539  -26.9661  -36.4866 C.3       4 UNK        -0.1875 
     32 C          22.1817  -26.6871  -38.0334 C.2       4 UNK         0.4949 
     33 O          22.5762  -25.8314  -37.2392 O.2       4 UNK        -0.5039 
     34 N          22.8472  -27.0250  -39.1403 N.am      5 UNK        -0.4663 
     35 CA         24.1347  -26.4893  -39.5707 C.3       5 UNK         0.0242 
     36 CB         23.9314  -25.1362  -40.2777 C.3       5 UNK        -0.1982 
     37 C          24.7980  -27.5050  -40.5074 C.2       5 UNK         0.5017 
     38 O          24.1039  -28.3559  -41.0655 O.2       5 UNK        -0.5012 
     39 N          26.1248  -27.3850  -40.6660 N.am      6 UNK        -0.4439 
     40 CA         26.9899  -28.1990  -41.5357 C.3       6 UNK         0.0297 
     41 CB         26.6397  -27.9667  -43.0222 C.3       6 UNK        -0.2006 
     42 C          27.0289  -29.6987  -41.1671 C.2       6 UNK         0.4892 
     43 O          27.2384  -30.5362  -42.0455 O.2       6 UNK        -0.5089 
     44 N          26.8246  -30.0094  -39.8770 N.am      7 UNK        -0.4243 
     45 CA         26.7678  -31.3343  -39.2341 C.3       7 UNK         0.0196 
     46 CB         28.0779  -32.1227  -39.4312 C.3       7 UNK        -0.2007 
     47 C          25.5422  -32.1910  -39.6113 C.2       7 UNK         0.5020 
     48 O          25.0214  -32.8973  -38.7475 O.2       7 UNK        -0.5147 
     49 N          25.0858  -32.1077  -40.8623 N.am      8 UNK        -0.4734 
     50 CA         23.8632  -32.7129  -41.3803 C.3       8 UNK         0.0238 
     51 CB         24.1931  -34.0607  -42.0444 C.3       8 UNK        -0.1912 
     52 C          23.2422  -31.7351  -42.3838 C.2       8 UNK         0.5038 
     53 O          23.9743  -30.9582  -43.0019 O.2       8 UNK        -0.5046 
     54 N          21.9138  -31.7984  -42.5374 N.am      9 UNK        -0.4200 
     55 CA         21.1322  -30.8614  -43.3589 C.3       9 UNK         0.0839 
     56 C          21.4093  -30.8879  -44.8902 C.2       9 UNK         0.5513 
     57 N          22.0538  -31.9097  -45.4387 N.am      9 UNK        -0.7519 
     58 O          21.0319  -29.9506  -45.5866 O.2       9 UNK        -0.4960 
     59 C59        19.6170  -30.9363  -43.0374 C.3       10 UNK        -0.0876 
     60 S60        18.8146  -32.4975  -43.5404 S.3       10 UNK        -0.2414 
     61 C61        17.1614  -32.3218  -42.7939 C.3       10 UNK         0.0169 
     62 H62        21.0466  -29.6428  -48.9041 H         1 UNK         0.0903 
     63 H63        20.4199  -28.8175  -50.3337 H         1 UNK         0.0903 
     64 H64        21.6933  -28.0681  -49.3660 H         1 UNK         0.0903 
     65 H65        19.6665  -29.5190  -47.1886 H         1 UNK         0.3096 
     66 H66        18.1632  -28.9471  -45.7106 H         1 UNK         0.1121 
     67 H67        16.9550  -27.0822  -47.8088 H         1 UNK         0.0849 
     68 H68        16.2581  -27.3357  -46.2379 H         1 UNK         0.0849 
     69 H69        14.0558  -28.7749  -46.4051 H         1 UNK         0.0865 
     70 H70        14.2226  -30.4964  -46.6118 H         1 UNK         0.0865 
     71 H71        16.1196  -31.7099  -45.2476 H         1 UNK         0.1346 
     72 H72        16.5998  -30.1211  -41.2928 H         1 UNK         0.1412 
     73 H73        14.6447  -27.7906  -44.3081 H         1 UNK         0.1426 
     74 H74        15.4647  -28.0559  -40.6790 H         1 UNK         0.0716 
     75 H75        14.3762  -27.3158  -41.8194 H         1 UNK         0.0716 
     76 H76        17.3273  -26.8963  -39.7821 H         1 UNK         0.0695 
     77 H77        18.3075  -25.6464  -40.5102 H         1 UNK         0.0695 
     78 H78        18.3609  -28.6108  -41.2410 H         1 UNK         0.0983 
     79 H79        19.3319  -28.0809  -43.1342 H         1 UNK         0.3095 
     80 H80        20.8234  -25.3515  -44.5413 H         1 UNK         0.0454 
     81 H81        22.5080  -27.8085  -43.7931 H         1 UNK         0.0851 
     82 H82        22.9640  -26.1330  -43.5429 H         1 UNK         0.0851 
     83 H83        22.7945  -26.7528  -45.1762 H         1 UNK         0.0851 
     84 H84        20.5815  -28.1305  -45.3403 H         1 UNK         0.2976 
     85 H85        19.2337  -26.5346  -38.8119 H         1 UNK         0.3116 
     86 H86        21.0910  -28.4848  -37.6659 H         1 UNK         0.0646 
     87 H87        19.2436  -27.5365  -36.3011 H         1 UNK         0.0847 
     88 H88        20.8031  -27.1087  -35.6216 H         1 UNK         0.0847 
     89 H89        19.8872  -25.9091  -36.5228 H         1 UNK         0.0847 
     90 H90        22.4697  -27.7578  -39.7387 H         1 UNK         0.3040 
     91 H91        24.7748  -26.3558  -38.6956 H         1 UNK         0.1015 
     92 H92        23.2897  -25.2357  -41.1537 H         1 UNK         0.0786 
     93 H93        24.8810  -24.7180  -40.6134 H         1 UNK         0.0786 
     94 H94        23.4739  -24.4036  -39.6125 H         1 UNK         0.0786 
     95 H95        26.5979  -26.6508  -40.1558 H         1 UNK         0.3172 
     96 H96        28.0046  -27.8301  -41.3795 H         1 UNK         0.0595 
     97 H97        25.6661  -28.3880  -43.2775 H         1 UNK         0.0839 
     98 H98        27.3753  -28.4358  -43.6767 H         1 UNK         0.0839 
     99 H99        26.6212  -26.9048  -43.2671 H         1 UNK         0.0839 
    100 H100       26.6389  -29.2340  -39.2565 H         1 UNK         0.2998 
    101 H101       26.6748  -31.1289  -38.1663 H         1 UNK         0.0822 
    102 H102       28.0674  -33.0429  -38.8455 H         1 UNK         0.0787 
    103 H103       28.2323  -32.4073  -40.4723 H         1 UNK         0.0787 
    104 H104       28.9429  -31.5431  -39.1088 H         1 UNK         0.0787 
    105 H105       25.5602  -31.4825  -41.5105 H         1 UNK         0.3055 
    106 H106       23.1547  -32.8677  -40.5631 H         1 UNK         0.1106 
    107 H107       23.2938  -34.5345  -42.4398 H         1 UNK         0.0828 
    108 H108       24.8921  -33.9398  -42.8731 H         1 UNK         0.0828 
    109 H109       24.6375  -34.7548  -41.3308 H         1 UNK         0.0828 
    110 H110       21.3838  -32.4948  -42.0347 H         1 UNK         0.2931 
    111 H111       21.4527  -29.8685  -43.0367 H         1 UNK         0.0412 
    112 H112       22.2320  -31.9074  -46.4300 H         1 UNK         0.3472 
    113 H113       22.3712  -32.6763  -44.8684 H         1 UNK         0.3472 
    114 H114       19.4621  -30.7939  -41.9668 H         1 UNK         0.0970 
    115 H115       19.0921  -30.1162  -43.5278 H         1 UNK         0.0970 
    116 H116       16.5550  -33.1836  -43.0760 H         1 UNK         0.0612 
    117 H117       17.2598  -32.3603  -41.7079 H         1 UNK         0.0612 
@<TRIPOS>BOND
     1    1    2 1    
     2    1   62 1    
     3    1   63 1    
     4    1   64 1    
     5    2    3 2    
     6    2    4 am   BACKBONE|DICT|INTERRES
     7    4    5 1    
     8    4   65 1    
     9    5    6 1    
    10    5   25 1    
    11    5   66 1    
    12    6    7 1    
    13    6   67 1    
    14    6   68 1    
    15    7    8 1    
    16    8    9 1    
    17    8   69 1    
    18    8   70 1    
    19    9   10 ar   
    20    9   14 ar   
    21   10   11 ar   
    22   10   71 1    
    23   11   12 ar   
    24   11   61 1    
    25   12   13 ar   
    26   12   72 1    
    27   13   14 ar   
    28   13   15 1    
    29   14   73 1    
    30   15   16 1    
    31   15   74 1    
    32   15   75 1    
    33   16   17 1    
    34   17   18 1    
    35   17   76 1    
    36   17   77 1    
    37   18   19 1    
    38   18   27 1    
    39   18   78 1    
    40   19   20 am   BACKBONE|DICT|INTERRES
    41   19   79 1    
    42   20   21 2    
    43   20   22 1    
    44   22   23 1    
    45   22   24 1    
    46   22   80 1    
    47   23   81 1    
    48   23   82 1    
    49   23   83 1    
    50   24   25 am   BACKBONE|DICT|INTERRES
    51   24   84 1    
    52   25   26 2    
    53   27   28 2    
    54   27   29 am   BACKBONE|DICT|INTERRES
    55   29   30 1    
    56   29   85 1    
    57   30   31 1    
    58   30   32 1    
    59   30   86 1    
    60   31   87 1    
    61   31   88 1    
    62   31   89 1    
    63   32   33 2    
    64   32   34 am   BACKBONE|DICT|INTERRES
    65   34   35 1    
    66   34   90 1    
    67   35   36 1    
    68   35   37 1    
    69   35   91 1    
    70   36   92 1    
    71   36   93 1    
    72   36   94 1    
    73   37   38 2    
    74   37   39 am   BACKBONE|DICT|INTERRES
    75   39   40 1    
    76   39   95 1    
    77   40   41 1    
    78   40   42 1    
    79   40   96 1    
    80   41   97 1    
    81   41   98 1    
    82   41   99 1    
    83   42   43 2    
    84   42   44 am   BACKBONE|DICT|INTERRES
    85   44   45 1    
    86   44  100 1    
    87   45   46 1    
    88   45   47 1    
    89   45  101 1    
    90   46  102 1    
    91   46  103 1    
    92   46  104 1    
    93   47   48 2    
    94   47   49 am   BACKBONE|DICT|INTERRES
    95   49   50 1    
    96   49  105 1    
    97   50   51 1    
    98   50   52 1    
    99   50  106 1    
   100   51  107 1    
   101   51  108 1    
   102   51  109 1    
   103   52   53 2    
   104   52   54 am   BACKBONE|DICT|INTERRES
   105   54   55 1    
   106   54  110 1    
   107   55   56 1    
   108   55   59 1    
   109   55  111 1    
   110   56   57 am   BACKBONE|DICT|INTERRES
   111   56   58 2    
   112   57  112 1    
   113   57  113 1    
   114   59   60 1    
   115   59  114 1    
   116   59  115 1    
   117   60   61 1    
   118   61  116 1    
   119   61  117 1    
@<TRIPOS>SUBSTRUCTURE
     1 UNK         1 GROUP             0       ****    0 ROOT    
