@<TRIPOS>MOLECULE
3R8
117   119    1
SMALL
USER_CHARGES


@<TRIPOS>ATOM
      1 CA         17.3741  -24.0109  -44.6461 C.3       0 UNK        -0.2013 
      2 C          17.9473  -25.4108  -44.8029 C.2       0 UNK         0.4866 
      3 O          18.3225  -26.0255  -43.8047 O.2       0 UNK        -0.5176 
      4 N          18.0299  -25.9059  -46.0476 N.am      1 UNK        -0.4884 
      5 CA         18.5165  -27.2290  -46.4840 C.3       1 UNK         0.0853 
      6 C6         17.7239  -28.4295  -45.9003 C.3       10 UNK        -0.0849 
      7 S7         15.9241  -28.3345  -46.1822 S.3       10 UNK        -0.2776 
      8 C8         15.3822  -29.9879  -45.6206 C.3       10 UNK         0.0316 
      9 C9         15.9731  -30.3929  -44.2725 C.ar      10 UNK        -0.0863 
     10 C10        16.6780  -31.5957  -44.1487 C.ar      10 UNK        -0.1009 
     11 C11        17.2483  -31.9606  -42.9253 C.ar      10 UNK        -0.0712 
     12 C12        17.1086  -31.1170  -41.8214 C.ar      10 UNK        -0.0894 
     13 C13        16.4277  -29.9036  -41.9367 C.ar      10 UNK        -0.0745 
     14 C14        15.8414  -29.5574  -43.1573 C.ar      10 UNK        -0.0972 
     15 C15        16.3496  -28.9543  -40.7518 C.3       10 UNK         0.0209 
     16 S16        17.6258  -27.6585  -40.8516 S.3       10 UNK        -0.2568 
     17 C17        19.1395  -28.5665  -40.3730 C.3       10 UNK        -0.0983 
     18 CA         20.4620  -27.8603  -40.7680 C.3       3 UNK         0.0876 
     19 N          20.6300  -27.7715  -42.2278 N.am      3 UNK        -0.4424 
     20 C          21.7104  -27.3103  -42.8838 C.2       2 UNK         0.4918 
     21 O          22.6518  -26.7318  -42.3425 O.2       2 UNK        -0.4875 
     22 CA         21.7519  -27.5198  -44.4022 C.3       2 UNK         0.0481 
     23 CB         22.3575  -28.9038  -44.7111 C.3       2 UNK        -0.1831 
     24 N          20.4106  -27.3707  -44.9580 N.am      2 UNK        -0.4498 
     25 C          20.0266  -27.4246  -46.2360 C.2       1 UNK         0.5027 
     26 O          20.7863  -27.6171  -47.1859 O.2       1 UNK        -0.4969 
     27 C          20.6614  -26.5400  -39.9930 C.2       3 UNK         0.5005 
     28 O          21.0164  -26.5845  -38.8138 O.2       3 UNK        -0.5279 
     29 N          20.4704  -25.3975  -40.6686 N.am      4 UNK        -0.4463 
     30 CA         20.7899  -24.0583  -40.1683 C.3       4 UNK         0.0283 
     31 CB         20.2879  -23.0138  -41.1782 C.3       4 UNK        -0.1875 
     32 C          22.2909  -23.8497  -39.8771 C.2       4 UNK         0.4949 
     33 O          22.6227  -23.0349  -39.0157 O.2       4 UNK        -0.5039 
     34 N          23.1612  -24.5829  -40.5851 N.am      5 UNK        -0.4663 
     35 CA         24.6065  -24.6114  -40.3735 C.3       5 UNK         0.0242 
     36 CB         25.3288  -24.5443  -41.7305 C.3       5 UNK        -0.1982 
     37 C          25.0119  -25.8699  -39.5922 C.2       5 UNK         0.5017 
     38 O          25.6414  -25.7422  -38.5413 O.2       5 UNK        -0.5012 
     39 N          24.6499  -27.0547  -40.1047 N.am      6 UNK        -0.4439 
     40 CA         24.9814  -28.3624  -39.5339 C.3       6 UNK         0.0297 
     41 CB         26.4820  -28.6676  -39.7171 C.3       6 UNK        -0.2006 
     42 C          24.1422  -29.4419  -40.2236 C.2       6 UNK         0.4892 
     43 O          23.7253  -29.2494  -41.3657 O.2       6 UNK        -0.5089 
     44 N          23.9402  -30.5827  -39.5524 N.am      7 UNK        -0.4243 
     45 CA         23.1596  -31.7308  -40.0370 C.3       7 UNK         0.0196 
     46 CB         22.7665  -32.6085  -38.8342 C.3       7 UNK        -0.2007 
     47 C          23.8618  -32.5362  -41.1555 C.2       7 UNK         0.5020 
     48 O          23.9727  -33.7596  -41.0685 O.2       7 UNK        -0.5147 
     49 N          24.3120  -31.8356  -42.2020 N.am      8 UNK        -0.4734 
     50 CA         24.9543  -32.3857  -43.4004 C.3       8 UNK         0.0238 
     51 CB         25.8621  -31.3038  -44.0106 C.3       8 UNK        -0.1912 
     52 C          23.9480  -32.9129  -44.4429 C.2       8 UNK         0.5038 
     53 O          24.3703  -33.4333  -45.4761 O.2       8 UNK        -0.5046 
     54 N          22.6472  -32.7640  -44.1635 N.am      9 UNK        -0.4200 
     55 CA         21.5176  -33.2433  -44.9731 C.3       9 UNK         0.0839 
     56 C          21.3895  -34.7912  -45.1008 C.2       9 UNK         0.5513 
     57 N          22.0683  -35.5875  -44.2831 N.am      9 UNK        -0.7519 
     58 O          20.6637  -35.2747  -45.9657 O.2       9 UNK        -0.4960 
     59 C59        20.1890  -32.5938  -44.5020 C.3       10 UNK        -0.0876 
     60 S60        19.8269  -32.9133  -42.7369 S.3       10 UNK        -0.2414 
     61 C61        18.0400  -33.2508  -42.7862 C.3       10 UNK         0.0169 
     62 H62        17.0849  -23.5768  -45.6029 H         1 UNK         0.0903 
     63 H63        16.4928  -24.0394  -44.0059 H         1 UNK         0.0903 
     64 H64        18.1103  -23.3547  -44.1827 H         1 UNK         0.0903 
     65 H65        17.7180  -25.3175  -46.8082 H         1 UNK         0.3096 
     66 H66        18.3799  -27.2491  -47.5668 H         1 UNK         0.1121 
     67 H67        17.8912  -28.5069  -44.8249 H         1 UNK         0.0849 
     68 H68        18.0843  -29.3661  -46.3313 H         1 UNK         0.0849 
     69 H69        14.2938  -29.9990  -45.5492 H         1 UNK         0.0865 
     70 H70        15.6454  -30.7156  -46.3899 H         1 UNK         0.0865 
     71 H71        16.7937  -32.2443  -45.0063 H         1 UNK         0.1346 
     72 H72        17.5617  -31.3936  -40.8791 H         1 UNK         0.1412 
     73 H73        15.3175  -28.6157  -43.2513 H         1 UNK         0.1426 
     74 H74        16.4494  -29.4964  -39.8101 H         1 UNK         0.0716 
     75 H75        15.3674  -28.4799  -40.7291 H         1 UNK         0.0716 
     76 H76        19.1228  -29.5553  -40.8300 H         1 UNK         0.0695 
     77 H77        19.1083  -28.7409  -39.2958 H         1 UNK         0.0695 
     78 H78        21.2710  -28.5093  -40.4287 H         1 UNK         0.0983 
     79 H79        19.8918  -28.2040  -42.7624 H         1 UNK         0.3095 
     80 H80        22.3873  -26.7450  -44.8350 H         1 UNK         0.0454 
     81 H81        23.3334  -29.0092  -44.2359 H         1 UNK         0.0851 
     82 H82        22.5058  -29.0583  -45.7792 H         1 UNK         0.0851 
     83 H83        21.7291  -29.7110  -44.3364 H         1 UNK         0.0851 
     84 H84        19.6935  -27.0464  -44.3081 H         1 UNK         0.2976 
     85 H85        20.1430  -25.4679  -41.6224 H         1 UNK         0.3116 
     86 H86        20.2497  -23.9175  -39.2298 H         1 UNK         0.0646 
     87 H87        20.7815  -23.1175  -42.1454 H         1 UNK         0.0847 
     88 H88        20.4816  -22.0015  -40.8206 H         1 UNK         0.0847 
     89 H89        19.2128  -23.0991  -41.3382 H         1 UNK         0.0847 
     90 H90        22.7990  -25.2611  -41.2516 H         1 UNK         0.3040 
     91 H91        24.9183  -23.7433  -39.7881 H         1 UNK         0.1015 
     92 H92        25.0535  -25.3723  -42.3849 H         1 UNK         0.0786 
     93 H93        26.4110  -24.5789  -41.5978 H         1 UNK         0.0786 
     94 H94        25.0964  -23.6166  -42.2536 H         1 UNK         0.0786 
     95 H95        24.0936  -27.0933  -40.9570 H         1 UNK         0.3172 
     96 H96        24.7312  -28.3554  -38.4710 H         1 UNK         0.0595 
     97 H97        26.7691  -28.6438  -40.7693 H         1 UNK         0.0839 
     98 H98        26.7340  -29.6570  -39.3333 H         1 UNK         0.0839 
     99 H99        27.1082  -27.9522  -39.1843 H         1 UNK         0.0839 
    100 H100       24.3584  -30.6835  -38.6384 H         1 UNK         0.2998 
    101 H101       22.2343  -31.3460  -40.4723 H         1 UNK         0.0822 
    102 H102       22.1259  -33.4351  -39.1452 H         1 UNK         0.0787 
    103 H103       23.6418  -33.0386  -38.3459 H         1 UNK         0.0787 
    104 H104       22.2116  -32.0373  -38.0897 H         1 UNK         0.0787 
    105 H105       24.1720  -30.8266  -42.1705 H         1 UNK         0.3055 
    106 H106       25.5801  -33.2314  -43.1064 H         1 UNK         0.1106 
    107 H107       26.4058  -31.6888  -44.8744 H         1 UNK         0.0828 
    108 H108       25.2912  -30.4376  -44.3452 H         1 UNK         0.0828 
    109 H109       26.6049  -30.9579  -43.2916 H         1 UNK         0.0828 
    110 H110       22.4007  -32.3485  -43.2782 H         1 UNK         0.2931 
    111 H111       21.7009  -32.8846  -45.9878 H         1 UNK         0.0412 
    112 H112       22.6536  -35.1979  -43.5610 H         1 UNK         0.3472 
    113 H113       21.9795  -36.5870  -44.3784 H         1 UNK         0.3472 
    114 H114       20.2284  -31.5142  -44.6475 H         1 UNK         0.0970 
    115 H115       19.3597  -32.9353  -45.1241 H         1 UNK         0.0970 
    116 H116       17.8116  -33.9463  -43.5952 H         1 UNK         0.0612 
    117 H117       17.7522  -33.7527  -41.8613 H         1 UNK         0.0612 
@<TRIPOS>BOND
     1    1    2 1    
     2    1   62 1    
     3    1   63 1    
     4    1   64 1    
     5    2    3 2    
     6    2    4 am   BACKBONE|DICT|INTERRES
     7    4    5 1    
     8    4   65 1    
     9    5    6 1    
    10    5   25 1    
    11    5   66 1    
    12    6    7 1    
    13    6   67 1    
    14    6   68 1    
    15    7    8 1    
    16    8    9 1    
    17    8   69 1    
    18    8   70 1    
    19    9   10 ar   
    20    9   14 ar   
    21   10   11 ar   
    22   10   71 1    
    23   11   12 ar   
    24   11   61 1    
    25   12   13 ar   
    26   12   72 1    
    27   13   14 ar   
    28   13   15 1    
    29   14   73 1    
    30   15   16 1    
    31   15   74 1    
    32   15   75 1    
    33   16   17 1    
    34   17   18 1    
    35   17   76 1    
    36   17   77 1    
    37   18   19 1    
    38   18   27 1    
    39   18   78 1    
    40   19   20 am   BACKBONE|DICT|INTERRES
    41   19   79 1    
    42   20   21 2    
    43   20   22 1    
    44   22   23 1    
    45   22   24 1    
    46   22   80 1    
    47   23   81 1    
    48   23   82 1    
    49   23   83 1    
    50   24   25 am   BACKBONE|DICT|INTERRES
    51   24   84 1    
    52   25   26 2    
    53   27   28 2    
    54   27   29 am   BACKBONE|DICT|INTERRES
    55   29   30 1    
    56   29   85 1    
    57   30   31 1    
    58   30   32 1    
    59   30   86 1    
    60   31   87 1    
    61   31   88 1    
    62   31   89 1    
    63   32   33 2    
    64   32   34 am   BACKBONE|DICT|INTERRES
    65   34   35 1    
    66   34   90 1    
    67   35   36 1    
    68   35   37 1    
    69   35   91 1    
    70   36   92 1    
    71   36   93 1    
    72   36   94 1    
    73   37   38 2    
    74   37   39 am   BACKBONE|DICT|INTERRES
    75   39   40 1    
    76   39   95 1    
    77   40   41 1    
    78   40   42 1    
    79   40   96 1    
    80   41   97 1    
    81   41   98 1    
    82   41   99 1    
    83   42   43 2    
    84   42   44 am   BACKBONE|DICT|INTERRES
    85   44   45 1    
    86   44  100 1    
    87   45   46 1    
    88   45   47 1    
    89   45  101 1    
    90   46  102 1    
    91   46  103 1    
    92   46  104 1    
    93   47   48 2    
    94   47   49 am   BACKBONE|DICT|INTERRES
    95   49   50 1    
    96   49  105 1    
    97   50   51 1    
    98   50   52 1    
    99   50  106 1    
   100   51  107 1    
   101   51  108 1    
   102   51  109 1    
   103   52   53 2    
   104   52   54 am   BACKBONE|DICT|INTERRES
   105   54   55 1    
   106   54  110 1    
   107   55   56 1    
   108   55   59 1    
   109   55  111 1    
   110   56   57 am   BACKBONE|DICT|INTERRES
   111   56   58 2    
   112   57  112 1    
   113   57  113 1    
   114   59   60 1    
   115   59  114 1    
   116   59  115 1    
   117   60   61 1    
   118   61  116 1    
   119   61  117 1    
@<TRIPOS>SUBSTRUCTURE
     1 UNK         1 GROUP             0       ****    0 ROOT    
