@<TRIPOS>MOLECULE
3R8
117   119    1
SMALL
USER_CHARGES


@<TRIPOS>ATOM
      1 CA         18.2864  -26.7637  -39.3032 C.3       0 UNK        -0.2013 
      2 C          18.0765  -25.9730  -40.5861 C.2       0 UNK         0.4866 
      3 O          17.9872  -24.7454  -40.5444 O.2       0 UNK        -0.5176 
      4 N          17.9880  -26.6705  -41.7244 N.am      1 UNK        -0.4884 
      5 CA         17.8655  -26.0864  -43.0649 C.3       1 UNK         0.0853 
      6 C6         17.4813  -27.1594  -44.1100 C.3       10 UNK        -0.0849 
      7 S7         15.8721  -27.9737  -43.8099 S.3       10 UNK        -0.2776 
      8 C8         16.3248  -29.7016  -43.3887 C.3       10 UNK         0.0316 
      9 C9         17.3328  -30.3835  -44.3189 C.ar      10 UNK        -0.0863 
     10 C10        18.0996  -31.4383  -43.8190 C.ar      10 UNK        -0.1009 
     11 C11        19.0971  -32.0353  -44.5938 C.ar      10 UNK        -0.0712 
     12 C12        19.3407  -31.5552  -45.8864 C.ar      10 UNK        -0.0894 
     13 C13        18.5676  -30.5135  -46.4148 C.ar      10 UNK        -0.0745 
     14 C14        17.5362  -29.9720  -45.6406 C.ar      10 UNK        -0.0972 
     15 C15        18.8304  -29.9877  -47.8252 C.3       10 UNK         0.0209 
     16 S16        18.7482  -28.1597  -47.9388 S.3       10 UNK        -0.2568 
     17 C17        20.4716  -27.6724  -48.3073 C.3       10 UNK        -0.0983 
     18 CA         21.2760  -27.1360  -47.0924 C.3       3 UNK         0.0876 
     19 N          20.5832  -26.0303  -46.4226 N.am      3 UNK        -0.4424 
     20 C          21.1775  -24.9507  -45.8963 C.2       2 UNK         0.4918 
     21 O          22.3900  -24.7445  -45.9411 O.2       2 UNK        -0.4875 
     22 CA         20.2646  -23.9320  -45.1824 C.3       2 UNK         0.0481 
     23 CB         19.7885  -22.8559  -46.1709 C.3       2 UNK        -0.1831 
     24 N          19.1014  -24.5433  -44.5258 N.am      2 UNK        -0.4498 
     25 C          19.1834  -25.4152  -43.5103 C.2       1 UNK         0.5027 
     26 O          20.2542  -25.7582  -43.0052 O.2       1 UNK        -0.4969 
     27 C          21.6777  -28.2751  -46.1304 C.2       3 UNK         0.5005 
     28 O          22.3122  -29.2292  -46.5862 O.2       3 UNK        -0.5279 
     29 N          21.3079  -28.1915  -44.8420 N.am      4 UNK        -0.4463 
     30 CA         21.5994  -29.2334  -43.8581 C.3       4 UNK         0.0283 
     31 CB         20.6893  -29.0875  -42.6284 C.3       4 UNK        -0.1875 
     32 C          23.0802  -29.2330  -43.4561 C.2       4 UNK         0.4949 
     33 O          23.6351  -28.1709  -43.1647 O.2       4 UNK        -0.5039 
     34 N          23.6785  -30.4306  -43.4234 N.am      5 UNK        -0.4663 
     35 CA         25.0692  -30.6935  -43.0491 C.3       5 UNK         0.0242 
     36 CB         25.3533  -32.1971  -43.2022 C.3       5 UNK        -0.1982 
     37 C          25.3520  -30.2224  -41.6159 C.2       5 UNK         0.5017 
     38 O          24.7974  -30.7939  -40.6749 O.2       5 UNK        -0.5012 
     39 N          26.1351  -29.1396  -41.4914 N.am      6 UNK        -0.4439 
     40 CA         26.4544  -28.4103  -40.2538 C.3       6 UNK         0.0297 
     41 CB         27.3689  -29.2666  -39.3517 C.3       6 UNK        -0.2006 
     42 C          25.2132  -27.8888  -39.4936 C.2       6 UNK         0.4892 
     43 O          25.2948  -27.6703  -38.2840 O.2       6 UNK        -0.5089 
     44 N          24.0826  -27.7405  -40.2058 N.am      7 UNK        -0.4243 
     45 CA         22.7292  -27.4874  -39.6947 C.3       7 UNK         0.0196 
     46 CB         22.6342  -26.0847  -39.0578 C.3       7 UNK        -0.2007 
     47 C          22.1900  -28.5987  -38.7628 C.2       7 UNK         0.5020 
     48 O          21.2384  -28.3477  -38.0223 O.2       7 UNK        -0.5147 
     49 N          22.8021  -29.7928  -38.7864 N.am      8 UNK        -0.4734 
     50 CA         22.5435  -30.8652  -37.8244 C.3       8 UNK         0.0238 
     51 CB         23.8667  -31.5742  -37.4900 C.3       8 UNK        -0.1912 
     52 C          21.5030  -31.8808  -38.3131 C.2       8 UNK         0.5038 
     53 O          20.7233  -32.3646  -37.4904 O.2       8 UNK        -0.5046 
     54 N          21.5171  -32.2147  -39.6121 N.am      9 UNK        -0.4200 
     55 CA         20.5787  -33.1796  -40.2097 C.3       9 UNK         0.0839 
     56 C          19.1265  -32.6358  -40.3324 C.2       9 UNK         0.5513 
     57 N          18.1498  -33.5203  -40.4867 N.am      9 UNK        -0.7519 
     58 O          18.8759  -31.4323  -40.3117 O.2       9 UNK        -0.4960 
     59 C59        21.1227  -33.8016  -41.5262 C.3       10 UNK        -0.0876 
     60 S60        21.2416  -32.6466  -42.9347 S.3       10 UNK        -0.2414 
     61 C61        19.8904  -33.2047  -44.0247 C.3       10 UNK         0.0169 
     62 H62        19.1475  -26.3769  -38.7592 H         1 UNK         0.0903 
     63 H63        17.4109  -26.6774  -38.6605 H         1 UNK         0.0903 
     64 H64        18.4636  -27.8216  -39.4988 H         1 UNK         0.0903 
     65 H65        18.0647  -27.6759  -41.6947 H         1 UNK         0.3096 
     66 H66        17.0867  -25.3210  -43.0339 H         1 UNK         0.1121 
     67 H67        18.2760  -27.9017  -44.1727 H         1 UNK         0.0849 
     68 H68        17.4143  -26.7188  -45.1067 H         1 UNK         0.0849 
     69 H69        16.7168  -29.7031  -42.3702 H         1 UNK         0.0865 
     70 H70        15.4143  -30.3015  -43.3654 H         1 UNK         0.0865 
     71 H71        17.9315  -31.7878  -42.8109 H         1 UNK         0.1346 
     72 H72        20.1278  -31.9973  -46.4817 H         1 UNK         0.1412 
     73 H73        16.9241  -29.1851  -46.0571 H         1 UNK         0.1426 
     74 H74        18.0786  -30.4090  -48.4935 H         1 UNK         0.0716 
     75 H75        19.7955  -30.3419  -48.1892 H         1 UNK         0.0716 
     76 H76        20.4193  -26.8862  -49.0619 H         1 UNK         0.0695 
     77 H77        20.9976  -28.4931  -48.7981 H         1 UNK         0.0695 
     78 H78        22.2197  -26.7566  -47.4908 H         1 UNK         0.0983 
     79 H79        19.5789  -26.1132  -46.3694 H         1 UNK         0.3095 
     80 H80        20.8613  -23.4416  -44.4103 H         1 UNK         0.0454 
     81 H81        20.6365  -22.3680  -46.6538 H         1 UNK         0.0851 
     82 H82        19.2159  -22.0776  -45.6663 H         1 UNK         0.0851 
     83 H83        19.1636  -23.2765  -46.9596 H         1 UNK         0.0851 
     84 H84        18.1933  -24.3030  -44.8986 H         1 UNK         0.2976 
     85 H85        20.8899  -27.3382  -44.4964 H         1 UNK         0.3116 
     86 H86        21.3705  -30.1903  -44.3272 H         1 UNK         0.0646 
     87 H87        20.7417  -28.0914  -42.1987 H         1 UNK         0.0847 
     88 H88        19.6505  -29.2861  -42.8823 H         1 UNK         0.0847 
     89 H89        20.9627  -29.7964  -41.8456 H         1 UNK         0.0847 
     90 H90        23.1143  -31.2447  -43.6290 H         1 UNK         0.3040 
     91 H91        25.7141  -30.1496  -43.7424 H         1 UNK         0.1015 
     92 H92        26.3831  -32.4296  -42.9274 H         1 UNK         0.0786 
     93 H93        25.2110  -32.5255  -44.2319 H         1 UNK         0.0786 
     94 H94        24.7023  -32.7990  -42.5661 H         1 UNK         0.0786 
     95 H95        26.4926  -28.7194  -42.3391 H         1 UNK         0.3172 
     96 H96        27.0173  -27.5260  -40.5557 H         1 UNK         0.0595 
     97 H97        26.8441  -30.1366  -38.9552 H         1 UNK         0.0839 
     98 H98        27.7320  -28.6908  -38.4995 H         1 UNK         0.0839 
     99 H99        28.2443  -29.6217  -39.8952 H         1 UNK         0.0839 
    100 H100       24.1310  -27.9235  -41.2043 H         1 UNK         0.2998 
    101 H101       22.0804  -27.4836  -40.5673 H         1 UNK         0.0822 
    102 H102       21.5996  -25.8266  -38.8304 H         1 UNK         0.0787 
    103 H103       23.0150  -25.3173  -39.7316 H         1 UNK         0.0787 
    104 H104       23.1955  -26.0232  -38.1251 H         1 UNK         0.0787 
    105 H105       23.5633  -29.9506  -39.4420 H         1 UNK         0.3055 
    106 H106       22.1623  -30.4318  -36.8965 H         1 UNK         0.1106 
    107 H107       24.6055  -30.8716  -37.1037 H         1 UNK         0.0828 
    108 H108       23.7169  -32.3396  -36.7273 H         1 UNK         0.0828 
    109 H109       24.2978  -32.0656  -38.3629 H         1 UNK         0.0828 
    110 H110       22.1701  -31.7633  -40.2353 H         1 UNK         0.2931 
    111 H111       20.5183  -34.0090  -39.5015 H         1 UNK         0.0412 
    112 H112       18.3371  -34.5106  -40.4986 H         1 UNK         0.3472 
    113 H113       17.2005  -33.1913  -40.5644 H         1 UNK         0.3472 
    114 H114       22.1211  -34.2034  -41.3469 H         1 UNK         0.0970 
    115 H115       20.5222  -34.6672  -41.8086 H         1 UNK         0.0970 
    116 H116       19.2066  -33.8564  -43.4795 H         1 UNK         0.0612 
    117 H117       20.3114  -33.8098  -44.8288 H         1 UNK         0.0612 
@<TRIPOS>BOND
     1    1    2 1    
     2    1   62 1    
     3    1   63 1    
     4    1   64 1    
     5    2    3 2    
     6    2    4 am   BACKBONE|DICT|INTERRES
     7    4    5 1    
     8    4   65 1    
     9    5    6 1    
    10    5   25 1    
    11    5   66 1    
    12    6    7 1    
    13    6   67 1    
    14    6   68 1    
    15    7    8 1    
    16    8    9 1    
    17    8   69 1    
    18    8   70 1    
    19    9   10 ar   
    20    9   14 ar   
    21   10   11 ar   
    22   10   71 1    
    23   11   12 ar   
    24   11   61 1    
    25   12   13 ar   
    26   12   72 1    
    27   13   14 ar   
    28   13   15 1    
    29   14   73 1    
    30   15   16 1    
    31   15   74 1    
    32   15   75 1    
    33   16   17 1    
    34   17   18 1    
    35   17   76 1    
    36   17   77 1    
    37   18   19 1    
    38   18   27 1    
    39   18   78 1    
    40   19   20 am   BACKBONE|DICT|INTERRES
    41   19   79 1    
    42   20   21 2    
    43   20   22 1    
    44   22   23 1    
    45   22   24 1    
    46   22   80 1    
    47   23   81 1    
    48   23   82 1    
    49   23   83 1    
    50   24   25 am   BACKBONE|DICT|INTERRES
    51   24   84 1    
    52   25   26 2    
    53   27   28 2    
    54   27   29 am   BACKBONE|DICT|INTERRES
    55   29   30 1    
    56   29   85 1    
    57   30   31 1    
    58   30   32 1    
    59   30   86 1    
    60   31   87 1    
    61   31   88 1    
    62   31   89 1    
    63   32   33 2    
    64   32   34 am   BACKBONE|DICT|INTERRES
    65   34   35 1    
    66   34   90 1    
    67   35   36 1    
    68   35   37 1    
    69   35   91 1    
    70   36   92 1    
    71   36   93 1    
    72   36   94 1    
    73   37   38 2    
    74   37   39 am   BACKBONE|DICT|INTERRES
    75   39   40 1    
    76   39   95 1    
    77   40   41 1    
    78   40   42 1    
    79   40   96 1    
    80   41   97 1    
    81   41   98 1    
    82   41   99 1    
    83   42   43 2    
    84   42   44 am   BACKBONE|DICT|INTERRES
    85   44   45 1    
    86   44  100 1    
    87   45   46 1    
    88   45   47 1    
    89   45  101 1    
    90   46  102 1    
    91   46  103 1    
    92   46  104 1    
    93   47   48 2    
    94   47   49 am   BACKBONE|DICT|INTERRES
    95   49   50 1    
    96   49  105 1    
    97   50   51 1    
    98   50   52 1    
    99   50  106 1    
   100   51  107 1    
   101   51  108 1    
   102   51  109 1    
   103   52   53 2    
   104   52   54 am   BACKBONE|DICT|INTERRES
   105   54   55 1    
   106   54  110 1    
   107   55   56 1    
   108   55   59 1    
   109   55  111 1    
   110   56   57 am   BACKBONE|DICT|INTERRES
   111   56   58 2    
   112   57  112 1    
   113   57  113 1    
   114   59   60 1    
   115   59  114 1    
   116   59  115 1    
   117   60   61 1    
   118   61  116 1    
   119   61  117 1    
@<TRIPOS>SUBSTRUCTURE
     1 UNK         1 GROUP             0       ****    0 ROOT    
