@<TRIPOS>MOLECULE
3R8
117   119    1
SMALL
USER_CHARGES


@<TRIPOS>ATOM
      1 CA         14.9588  -24.7731  -47.4882 C.3       0 UNK        -0.2013 
      2 C          15.8011  -24.7472  -46.2215 C.2       0 UNK         0.4866 
      3 O          15.8197  -23.7328  -45.5244 O.2       0 UNK        -0.5176 
      4 N          16.5009  -25.8535  -45.9293 N.am      1 UNK        -0.4884 
      5 CA         17.3582  -26.0658  -44.7513 C.3       1 UNK         0.0853 
      6 C6         16.5765  -26.0833  -43.4064 C.3       10 UNK        -0.0849 
      7 S7         15.4270  -27.4968  -43.2770 S.3       10 UNK        -0.2776 
      8 C8         16.1033  -28.4107  -41.8467 C.3       10 UNK         0.0316 
      9 C9         17.1065  -29.4848  -42.2538 C.ar      10 UNK        -0.0863 
     10 C10        16.7874  -30.8371  -42.0854 C.ar      10 UNK        -0.1009 
     11 C11        17.7116  -31.8314  -42.4191 C.ar      10 UNK        -0.0712 
     12 C12        18.9484  -31.4724  -42.9589 C.ar      10 UNK        -0.0894 
     13 C13        19.2811  -30.1281  -43.1302 C.ar      10 UNK        -0.0745 
     14 C14        18.3652  -29.1376  -42.7576 C.ar      10 UNK        -0.0972 
     15 C15        20.6487  -29.7500  -43.6710 C.3       10 UNK         0.0209 
     16 S16        20.5355  -28.8882  -45.2684 S.3       10 UNK        -0.2568 
     17 C17        22.2632  -28.3152  -45.4712 C.3       10 UNK        -0.0983 
     18 CA         22.5146  -26.8791  -44.9344 C.3       3 UNK         0.0876 
     19 N          21.5274  -25.9532  -45.4833 N.am      3 UNK        -0.4424 
     20 C          21.5839  -24.6179  -45.5084 C.2       2 UNK         0.4918 
     21 O          22.5497  -23.9624  -45.1190 O.2       2 UNK        -0.4875 
     22 CA         20.3175  -23.9014  -46.0250 C.3       2 UNK         0.0481 
     23 CB         20.4928  -23.4954  -47.4964 C.3       2 UNK        -0.1831 
     24 N          19.0886  -24.7012  -45.8833 N.am      2 UNK        -0.4498 
     25 C          18.5879  -25.1269  -44.7117 C.2       1 UNK         0.5027 
     26 O          19.1119  -24.8498  -43.6327 O.2       1 UNK        -0.4969 
     27 C          22.5956  -26.8827  -43.3901 C.2       3 UNK         0.5005 
     28 O          23.4978  -27.5327  -42.8601 O.2       3 UNK        -0.5279 
     29 N          21.6576  -26.2329  -42.6767 N.am      4 UNK        -0.4463 
     30 CA         21.4797  -26.3276  -41.2159 C.3       4 UNK         0.0283 
     31 CB         20.2413  -25.5256  -40.7871 C.3       4 UNK        -0.1875 
     32 C          22.6939  -25.9372  -40.3505 C.2       4 UNK         0.4949 
     33 O          22.7404  -26.3250  -39.1833 O.2       4 UNK        -0.5039 
     34 N          23.6657  -25.2173  -40.9279 N.am      5 UNK        -0.4663 
     35 CA         24.9764  -24.9595  -40.3231 C.3       5 UNK         0.0242 
     36 CB         25.7308  -23.9259  -41.1746 C.3       5 UNK        -0.1982 
     37 C          25.8239  -26.2366  -40.1465 C.2       5 UNK         0.5017 
     38 O          26.6259  -26.2973  -39.2138 O.2       5 UNK        -0.5012 
     39 N          25.6254  -27.2250  -41.0300 N.am      6 UNK        -0.4439 
     40 CA         26.2270  -28.5570  -40.9608 C.3       6 UNK         0.0297 
     41 CB         26.7064  -28.9725  -42.3615 C.3       6 UNK        -0.2006 
     42 C          25.2304  -29.5904  -40.4099 C.2       6 UNK         0.4892 
     43 O          25.6458  -30.4682  -39.6527 O.2       6 UNK        -0.5089 
     44 N          23.9474  -29.4627  -40.7898 N.am      7 UNK        -0.4243 
     45 CA         22.8277  -30.3501  -40.4498 C.3       7 UNK         0.0196 
     46 CB         22.5025  -30.2789  -38.9401 C.3       7 UNK        -0.2007 
     47 C          23.0620  -31.7724  -40.9987 C.2       7 UNK         0.5020 
     48 O          23.2539  -31.9081  -42.2075 O.2       7 UNK        -0.5147 
     49 N          23.0560  -32.7846  -40.1169 N.am      8 UNK        -0.4734 
     50 CA         23.3528  -34.2009  -40.3770 C.3       8 UNK         0.0238 
     51 CB         24.8354  -34.3763  -40.7737 C.3       8 UNK        -0.1912 
     52 C          22.3853  -34.8445  -41.3894 C.2       8 UNK         0.5038 
     53 O          22.7938  -35.2009  -42.4971 O.2       8 UNK        -0.5046 
     54 N          21.1146  -34.9703  -40.9836 N.am      9 UNK        -0.4200 
     55 CA         20.0372  -35.6253  -41.7456 C.3       9 UNK         0.0839 
     56 C          20.3462  -37.1086  -42.0918 C.2       9 UNK         0.5513 
     57 N          19.9544  -37.5656  -43.2733 N.am      9 UNK        -0.7519 
     58 O          20.8903  -37.8554  -41.2806 O.2       9 UNK        -0.4960 
     59 C59        18.6704  -35.5326  -41.0145 C.3       10 UNK        -0.0876 
     60 S60        18.1925  -33.8225  -40.6068 S.3       10 UNK        -0.2414 
     61 C61        17.4055  -33.2953  -42.1600 C.3       10 UNK         0.0169 
     62 H62        15.0357  -25.7260  -48.0117 H         1 UNK         0.0903 
     63 H63        13.9102  -24.6054  -47.2436 H         1 UNK         0.0903 
     64 H64        15.2801  -23.9852  -48.1689 H         1 UNK         0.0903 
     65 H65        16.4278  -26.6497  -46.5486 H         1 UNK         0.3096 
     66 H66        17.7882  -27.0599  -44.8839 H         1 UNK         0.1121 
     67 H67        16.0089  -25.1607  -43.2783 H         1 UNK         0.0849 
     68 H68        17.2574  -26.1194  -42.5561 H         1 UNK         0.0849 
     69 H69        16.5611  -27.7284  -41.1294 H         1 UNK         0.0865 
     70 H70        15.2647  -28.8658  -41.3175 H         1 UNK         0.0865 
     71 H71        15.8294  -31.1185  -41.6695 H         1 UNK         0.1346 
     72 H72        19.6637  -32.2431  -43.2137 H         1 UNK         0.1412 
     73 H73        18.6366  -28.0973  -42.8645 H         1 UNK         0.1426 
     74 H74        21.1337  -29.1151  -42.9351 H         1 UNK         0.0716 
     75 H75        21.2847  -30.6292  -43.7869 H         1 UNK         0.0716 
     76 H76        22.9494  -29.0380  -45.0243 H         1 UNK         0.0695 
     77 H77        22.4842  -28.3368  -46.5394 H         1 UNK         0.0695 
     78 H78        23.4976  -26.5567  -45.2845 H         1 UNK         0.0983 
     79 H79        20.6911  -26.3941  -45.8373 H         1 UNK         0.3095 
     80 H80        20.1920  -22.9930  -45.4323 H         1 UNK         0.0454 
     81 H81        20.6019  -24.3645  -48.1464 H         1 UNK         0.0851 
     82 H82        19.6426  -22.9131  -47.8522 H         1 UNK         0.0851 
     83 H83        21.3824  -22.8775  -47.6273 H         1 UNK         0.0851 
     84 H84        18.6037  -24.9570  -46.7318 H         1 UNK         0.2976 
     85 H85        20.9421  -25.7128  -43.1740 H         1 UNK         0.3116 
     86 H86        21.2806  -27.3780  -40.9944 H         1 UNK         0.0646 
     87 H87        20.3134  -24.4801  -41.0890 H         1 UNK         0.0847 
     88 H88        19.3325  -25.9416  -41.2199 H         1 UNK         0.0847 
     89 H89        20.1112  -25.5446  -39.7041 H         1 UNK         0.0847 
     90 H90        23.5358  -24.9273  -41.8866 H         1 UNK         0.3040 
     91 H91        24.8130  -24.5358  -39.3296 H         1 UNK         0.1015 
     92 H92        25.9081  -24.2886  -42.1880 H         1 UNK         0.0786 
     93 H93        26.7028  -23.6949  -40.7363 H         1 UNK         0.0786 
     94 H94        25.1779  -22.9889  -41.2441 H         1 UNK         0.0786 
     95 H95        24.9104  -27.0986  -41.7427 H         1 UNK         0.3172 
     96 H96        27.0956  -28.5426  -40.2990 H         1 UNK         0.0595 
     97 H97        27.1676  -29.9607  -42.3378 H         1 UNK         0.0839 
     98 H98        27.4510  -28.2762  -42.7474 H         1 UNK         0.0839 
     99 H99        25.8840  -29.0141  -43.0772 H         1 UNK         0.0839 
    100 H100       23.7392  -28.7507  -41.4854 H         1 UNK         0.2998 
    101 H101       21.9576  -29.9643  -40.9792 H         1 UNK         0.0822 
    102 H102       21.6050  -30.8514  -38.7018 H         1 UNK         0.0787 
    103 H103       23.3162  -30.6561  -38.3199 H         1 UNK         0.0787 
    104 H104       22.3110  -29.2497  -38.6350 H         1 UNK         0.0787 
    105 H105       22.8776  -32.5489  -39.1503 H         1 UNK         0.3055 
    106 H106       23.2096  -34.7308  -39.4335 H         1 UNK         0.1106 
    107 H107       25.5001  -33.9672  -40.0128 H         1 UNK         0.0828 
    108 H108       25.0852  -35.4316  -40.8903 H         1 UNK         0.0828 
    109 H109       25.0670  -33.8826  -41.7181 H         1 UNK         0.0828 
    110 H110       20.8595  -34.6334  -40.0674 H         1 UNK         0.2931 
    111 H111       19.9532  -35.0760  -42.6856 H         1 UNK         0.0412 
    112 H112       20.1304  -38.5303  -43.5087 H         1 UNK         0.3472 
    113 H113       19.4989  -36.9633  -43.9418 H         1 UNK         0.3472 
    114 H114       17.8775  -35.9842  -41.6145 H         1 UNK         0.0970 
    115 H115       18.7001  -36.1017  -40.0832 H         1 UNK         0.0970 
    116 H116       17.7702  -33.8938  -42.9960 H         1 UNK         0.0612 
    117 H117       16.3298  -33.4673  -42.0991 H         1 UNK         0.0612 
@<TRIPOS>BOND
     1    1    2 1    
     2    1   62 1    
     3    1   63 1    
     4    1   64 1    
     5    2    3 2    
     6    2    4 am   BACKBONE|DICT|INTERRES
     7    4    5 1    
     8    4   65 1    
     9    5    6 1    
    10    5   25 1    
    11    5   66 1    
    12    6    7 1    
    13    6   67 1    
    14    6   68 1    
    15    7    8 1    
    16    8    9 1    
    17    8   69 1    
    18    8   70 1    
    19    9   10 ar   
    20    9   14 ar   
    21   10   11 ar   
    22   10   71 1    
    23   11   12 ar   
    24   11   61 1    
    25   12   13 ar   
    26   12   72 1    
    27   13   14 ar   
    28   13   15 1    
    29   14   73 1    
    30   15   16 1    
    31   15   74 1    
    32   15   75 1    
    33   16   17 1    
    34   17   18 1    
    35   17   76 1    
    36   17   77 1    
    37   18   19 1    
    38   18   27 1    
    39   18   78 1    
    40   19   20 am   BACKBONE|DICT|INTERRES
    41   19   79 1    
    42   20   21 2    
    43   20   22 1    
    44   22   23 1    
    45   22   24 1    
    46   22   80 1    
    47   23   81 1    
    48   23   82 1    
    49   23   83 1    
    50   24   25 am   BACKBONE|DICT|INTERRES
    51   24   84 1    
    52   25   26 2    
    53   27   28 2    
    54   27   29 am   BACKBONE|DICT|INTERRES
    55   29   30 1    
    56   29   85 1    
    57   30   31 1    
    58   30   32 1    
    59   30   86 1    
    60   31   87 1    
    61   31   88 1    
    62   31   89 1    
    63   32   33 2    
    64   32   34 am   BACKBONE|DICT|INTERRES
    65   34   35 1    
    66   34   90 1    
    67   35   36 1    
    68   35   37 1    
    69   35   91 1    
    70   36   92 1    
    71   36   93 1    
    72   36   94 1    
    73   37   38 2    
    74   37   39 am   BACKBONE|DICT|INTERRES
    75   39   40 1    
    76   39   95 1    
    77   40   41 1    
    78   40   42 1    
    79   40   96 1    
    80   41   97 1    
    81   41   98 1    
    82   41   99 1    
    83   42   43 2    
    84   42   44 am   BACKBONE|DICT|INTERRES
    85   44   45 1    
    86   44  100 1    
    87   45   46 1    
    88   45   47 1    
    89   45  101 1    
    90   46  102 1    
    91   46  103 1    
    92   46  104 1    
    93   47   48 2    
    94   47   49 am   BACKBONE|DICT|INTERRES
    95   49   50 1    
    96   49  105 1    
    97   50   51 1    
    98   50   52 1    
    99   50  106 1    
   100   51  107 1    
   101   51  108 1    
   102   51  109 1    
   103   52   53 2    
   104   52   54 am   BACKBONE|DICT|INTERRES
   105   54   55 1    
   106   54  110 1    
   107   55   56 1    
   108   55   59 1    
   109   55  111 1    
   110   56   57 am   BACKBONE|DICT|INTERRES
   111   56   58 2    
   112   57  112 1    
   113   57  113 1    
   114   59   60 1    
   115   59  114 1    
   116   59  115 1    
   117   60   61 1    
   118   61  116 1    
   119   61  117 1    
@<TRIPOS>SUBSTRUCTURE
     1 UNK         1 GROUP             0       ****    0 ROOT    
