@<TRIPOS>MOLECULE
3R8
117   119    1
SMALL
USER_CHARGES


@<TRIPOS>ATOM
      1 CA         14.8505  -25.5722  -47.8940 C.3       0 UNK        -0.2013 
      2 C          16.0747  -25.4958  -46.9950 C.2       0 UNK         0.4866 
      3 O          16.0162  -25.9416  -45.8493 O.2       0 UNK        -0.5176 
      4 N          17.1757  -24.9247  -47.5038 N.am      1 UNK        -0.4884 
      5 CA         18.5027  -24.7578  -46.8811 C.3       1 UNK         0.0853 
      6 C6         19.1648  -26.0807  -46.4076 C.3       10 UNK        -0.0849 
      7 S7         19.3493  -27.3448  -47.7101 S.3       10 UNK        -0.2776 
      8 C8         18.2417  -28.6728  -47.1163 C.3       10 UNK         0.0316 
      9 C9         18.5174  -29.1124  -45.6791 C.ar      10 UNK        -0.0863 
     10 C10        19.8125  -29.4324  -45.2579 C.ar      10 UNK        -0.1009 
     11 C11        20.0585  -29.8175  -43.9363 C.ar      10 UNK        -0.0712 
     12 C12        18.9916  -29.9069  -43.0354 C.ar      10 UNK        -0.0894 
     13 C13        17.6899  -29.5988  -43.4452 C.ar      10 UNK        -0.0745 
     14 C14        17.4623  -29.1979  -44.7652 C.ar      10 UNK        -0.0972 
     15 C15        16.5189  -29.7177  -42.4775 C.3       10 UNK         0.0209 
     16 S16        15.9134  -28.0905  -41.9213 S.3       10 UNK        -0.2568 
     17 C17        17.1748  -27.6165  -40.6922 C.3       10 UNK        -0.0983 
     18 CA         18.2945  -26.7396  -41.3047 C.3       3 UNK         0.0876 
     19 N          17.7678  -25.4960  -41.8767 N.am      3 UNK        -0.4424 
     20 C          18.4557  -24.6654  -42.6683 C.2       2 UNK         0.4918 
     21 O          19.6538  -24.7942  -42.9271 O.2       2 UNK        -0.4875 
     22 CA         17.6368  -23.5612  -43.3585 C.3       2 UNK         0.0481 
     23 CB         18.1667  -22.1456  -43.0527 C.3       2 UNK        -0.1831 
     24 N          17.5753  -23.8772  -44.7893 N.am      2 UNK        -0.4498 
     25 C          18.5415  -23.7525  -45.7111 C.2       1 UNK         0.5027 
     26 O          19.4704  -22.9460  -45.6513 O.2       1 UNK        -0.4969 
     27 C          19.4436  -26.5176  -40.2982 C.2       3 UNK         0.5005 
     28 O          19.6205  -25.4119  -39.7806 O.2       3 UNK        -0.5279 
     29 N          20.1986  -27.6005  -40.0523 N.am      4 UNK        -0.4463 
     30 CA         21.4535  -27.6678  -39.2897 C.3       4 UNK         0.0283 
     31 CB         21.2822  -27.1788  -37.8352 C.3       4 UNK        -0.1875 
     32 C          22.6361  -26.9988  -40.0197 C.2       4 UNK         0.4949 
     33 O          23.6102  -26.6056  -39.3775 O.2       4 UNK        -0.5039 
     34 N          22.5505  -26.9196  -41.3569 N.am      5 UNK        -0.4663 
     35 CA         23.6077  -26.4259  -42.2460 C.3       5 UNK         0.0242 
     36 CB         23.0119  -26.1784  -43.6424 C.3       5 UNK        -0.1982 
     37 C          24.8220  -27.3699  -42.3381 C.2       5 UNK         0.5017 
     38 O          25.9087  -26.9190  -42.7019 O.2       5 UNK        -0.5012 
     39 N          24.6210  -28.6491  -42.0034 N.am      6 UNK        -0.4439 
     40 CA         25.6406  -29.6832  -41.9004 C.3       6 UNK         0.0297 
     41 CB         25.8206  -30.3823  -43.2592 C.3       6 UNK        -0.2006 
     42 C          25.1819  -30.6767  -40.8303 C.2       6 UNK         0.4892 
     43 O          23.9778  -30.9161  -40.7029 O.2       6 UNK        -0.5089 
     44 N          26.1455  -31.2596  -40.1054 N.am      7 UNK        -0.4243 
     45 CA         25.9068  -32.2745  -39.0718 C.3       7 UNK         0.0196 
     46 CB         27.1903  -32.4769  -38.2506 C.3       7 UNK        -0.2007 
     47 C          25.4159  -33.6170  -39.6418 C.2       7 UNK         0.5020 
     48 O          24.7156  -34.3526  -38.9457 O.2       7 UNK        -0.5147 
     49 N          25.7609  -33.8972  -40.9075 N.am      8 UNK        -0.4734 
     50 CA         25.3470  -35.0839  -41.6644 C.3       8 UNK         0.0238 
     51 CB         26.0848  -35.0977  -43.0134 C.3       8 UNK        -0.1912 
     52 C          23.8262  -35.1943  -41.8846 C.2       8 UNK         0.5038 
     53 O          23.3391  -36.2965  -42.1396 O.2       8 UNK        -0.5046 
     54 N          23.1092  -34.0683  -41.7733 N.am      9 UNK        -0.4200 
     55 CA         21.6422  -33.9997  -41.8205 C.3       9 UNK         0.0839 
     56 C          20.9395  -34.5479  -40.5431 C.2       9 UNK         0.5513 
     57 N          21.6443  -34.8111  -39.4474 N.am      9 UNK        -0.7519 
     58 O          19.7269  -34.7421  -40.5501 O.2       9 UNK        -0.4960 
     59 C59        21.1425  -32.5695  -42.1486 C.3       10 UNK        -0.0876 
     60 S60        21.8766  -31.8894  -43.6748 S.3       10 UNK        -0.2414 
     61 C61        21.4811  -30.1252  -43.4909 C.3       10 UNK         0.0169 
     62 H62        15.0377  -25.1434  -48.8783 H         1 UNK         0.0903 
     63 H63        14.5505  -26.6111  -48.0285 H         1 UNK         0.0903 
     64 H64        14.0186  -25.0334  -47.4411 H         1 UNK         0.0903 
     65 H65        17.1223  -24.5613  -48.4459 H         1 UNK         0.3096 
     66 H66        19.1387  -24.3382  -47.6628 H         1 UNK         0.1121 
     67 H67        20.1676  -25.8820  -46.0227 H         1 UNK         0.0849 
     68 H68        18.6130  -26.4937  -45.5623 H         1 UNK         0.0849 
     69 H69        18.3455  -29.5371  -47.7732 H         1 UNK         0.0865 
     70 H70        17.2109  -28.3317  -47.2216 H         1 UNK         0.0865 
     71 H71        20.6334  -29.3693  -45.9592 H         1 UNK         0.1346 
     72 H72        19.1729  -30.2223  -42.0178 H         1 UNK         0.1412 
     73 H73        16.4568  -28.9489  -45.0777 H         1 UNK         0.1426 
     74 H74        16.7827  -30.3312  -41.6147 H         1 UNK         0.0716 
     75 H75        15.7003  -30.2390  -42.9760 H         1 UNK         0.0716 
     76 H76        17.5787  -28.5259  -40.2439 H         1 UNK         0.0695 
     77 H77        16.6761  -27.0808  -39.8822 H         1 UNK         0.0695 
     78 H78        18.7298  -27.2845  -42.1440 H         1 UNK         0.0983 
     79 H79        16.7850  -25.3261  -41.7226 H         1 UNK         0.3095 
     80 H80        16.6076  -23.6093  -42.9991 H         1 UNK         0.0454 
     81 H81        17.6489  -21.3898  -43.6428 H         1 UNK         0.0851 
     82 H82        19.2355  -22.0533  -43.2476 H         1 UNK         0.0851 
     83 H83        18.0151  -21.8999  -42.0013 H         1 UNK         0.0851 
     84 H84        16.8812  -24.5875  -45.0206 H         1 UNK         0.2976 
     85 H85        19.9269  -28.4697  -40.4888 H         1 UNK         0.3116 
     86 H86        21.7081  -28.7278  -39.2393 H         1 UNK         0.0646 
     87 H87        22.1633  -27.4184  -37.2387 H         1 UNK         0.0847 
     88 H88        20.4278  -27.6532  -37.3529 H         1 UNK         0.0847 
     89 H89        21.1441  -26.0988  -37.7803 H         1 UNK         0.0847 
     90 H90        21.6962  -27.2216  -41.8000 H         1 UNK         0.3040 
     91 H91        23.9675  -25.4733  -41.8505 H         1 UNK         0.1015 
     92 H92        22.2137  -25.4368  -43.6070 H         1 UNK         0.0786 
     93 H93        22.6032  -27.0902  -44.0790 H         1 UNK         0.0786 
     94 H94        23.7701  -25.7998  -44.3294 H         1 UNK         0.0786 
     95 H95        23.7118  -28.9332  -41.6631 H         1 UNK         0.3172 
     96 H96        26.5861  -29.2351  -41.5867 H         1 UNK         0.0595 
     97 H97        24.8957  -30.8534  -43.5953 H         1 UNK         0.0839 
     98 H98        26.5830  -31.1600  -43.2039 H         1 UNK         0.0839 
     99 H99        26.1339  -29.6771  -44.0291 H         1 UNK         0.0839 
    100 H100       27.1078  -31.0015  -40.2740 H         1 UNK         0.2998 
    101 H101       25.1274  -31.9004  -38.4040 H         1 UNK         0.0822 
    102 H102       28.0138  -32.8377  -38.8683 H         1 UNK         0.0787 
    103 H103       27.5076  -31.5491  -37.7742 H         1 UNK         0.0787 
    104 H104       27.0337  -33.2090  -37.4568 H         1 UNK         0.0787 
    105 H105       26.3429  -33.2315  -41.3942 H         1 UNK         0.3055 
    106 H106       25.6508  -35.9642  -41.0935 H         1 UNK         0.1106 
    107 H107       25.8233  -35.9846  -43.5927 H         1 UNK         0.0828 
    108 H108       27.1662  -35.1121  -42.8762 H         1 UNK         0.0828 
    109 H109       25.8326  -34.2271  -43.6205 H         1 UNK         0.0828 
    110 H110       23.5854  -33.2039  -41.5564 H         1 UNK         0.2931 
    111 H111       21.3184  -34.6456  -42.6392 H         1 UNK         0.0412 
    112 H112       21.1705  -35.1685  -38.6329 H         1 UNK         0.3472 
    113 H113       22.6447  -34.6563  -39.4189 H         1 UNK         0.3472 
    114 H114       20.0575  -32.5663  -42.2672 H         1 UNK         0.0970 
    115 H115       21.3672  -31.8974  -41.3180 H         1 UNK         0.0970 
    116 H116       21.6379  -29.8117  -42.4581 H         1 UNK         0.0612 
    117 H117       22.1894  -29.5517  -44.0905 H         1 UNK         0.0612 
@<TRIPOS>BOND
     1    1    2 1    
     2    1   62 1    
     3    1   63 1    
     4    1   64 1    
     5    2    3 2    
     6    2    4 am   BACKBONE|DICT|INTERRES
     7    4    5 1    
     8    4   65 1    
     9    5    6 1    
    10    5   25 1    
    11    5   66 1    
    12    6    7 1    
    13    6   67 1    
    14    6   68 1    
    15    7    8 1    
    16    8    9 1    
    17    8   69 1    
    18    8   70 1    
    19    9   10 ar   
    20    9   14 ar   
    21   10   11 ar   
    22   10   71 1    
    23   11   12 ar   
    24   11   61 1    
    25   12   13 ar   
    26   12   72 1    
    27   13   14 ar   
    28   13   15 1    
    29   14   73 1    
    30   15   16 1    
    31   15   74 1    
    32   15   75 1    
    33   16   17 1    
    34   17   18 1    
    35   17   76 1    
    36   17   77 1    
    37   18   19 1    
    38   18   27 1    
    39   18   78 1    
    40   19   20 am   BACKBONE|DICT|INTERRES
    41   19   79 1    
    42   20   21 2    
    43   20   22 1    
    44   22   23 1    
    45   22   24 1    
    46   22   80 1    
    47   23   81 1    
    48   23   82 1    
    49   23   83 1    
    50   24   25 am   BACKBONE|DICT|INTERRES
    51   24   84 1    
    52   25   26 2    
    53   27   28 2    
    54   27   29 am   BACKBONE|DICT|INTERRES
    55   29   30 1    
    56   29   85 1    
    57   30   31 1    
    58   30   32 1    
    59   30   86 1    
    60   31   87 1    
    61   31   88 1    
    62   31   89 1    
    63   32   33 2    
    64   32   34 am   BACKBONE|DICT|INTERRES
    65   34   35 1    
    66   34   90 1    
    67   35   36 1    
    68   35   37 1    
    69   35   91 1    
    70   36   92 1    
    71   36   93 1    
    72   36   94 1    
    73   37   38 2    
    74   37   39 am   BACKBONE|DICT|INTERRES
    75   39   40 1    
    76   39   95 1    
    77   40   41 1    
    78   40   42 1    
    79   40   96 1    
    80   41   97 1    
    81   41   98 1    
    82   41   99 1    
    83   42   43 2    
    84   42   44 am   BACKBONE|DICT|INTERRES
    85   44   45 1    
    86   44  100 1    
    87   45   46 1    
    88   45   47 1    
    89   45  101 1    
    90   46  102 1    
    91   46  103 1    
    92   46  104 1    
    93   47   48 2    
    94   47   49 am   BACKBONE|DICT|INTERRES
    95   49   50 1    
    96   49  105 1    
    97   50   51 1    
    98   50   52 1    
    99   50  106 1    
   100   51  107 1    
   101   51  108 1    
   102   51  109 1    
   103   52   53 2    
   104   52   54 am   BACKBONE|DICT|INTERRES
   105   54   55 1    
   106   54  110 1    
   107   55   56 1    
   108   55   59 1    
   109   55  111 1    
   110   56   57 am   BACKBONE|DICT|INTERRES
   111   56   58 2    
   112   57  112 1    
   113   57  113 1    
   114   59   60 1    
   115   59  114 1    
   116   59  115 1    
   117   60   61 1    
   118   61  116 1    
   119   61  117 1    
@<TRIPOS>SUBSTRUCTURE
     1 UNK         1 GROUP             0       ****    0 ROOT    
