@<TRIPOS>MOLECULE
3R8
117   119    1
SMALL
USER_CHARGES


@<TRIPOS>ATOM
      1 CA         16.2623  -24.9199  -46.3824 C.3       0 UNK        -0.2013 
      2 C          17.7325  -24.9394  -46.7719 C.2       0 UNK         0.4866 
      3 O          18.2741  -23.9046  -47.1608 O.2       0 UNK        -0.5176 
      4 N          18.3743  -26.1120  -46.6876 N.am      1 UNK        -0.4884 
      5 CA         19.7775  -26.3381  -47.0605 C.3       1 UNK         0.0853 
      6 C6         20.1298  -27.8482  -47.1262 C.3       10 UNK        -0.0849 
      7 S7         18.9562  -28.8482  -48.1019 S.3       10 UNK        -0.2776 
      8 C8         18.9472  -30.4266  -47.1718 C.3       10 UNK         0.0316 
      9 C9         18.4688  -30.3157  -45.7224 C.ar      10 UNK        -0.0863 
     10 C10        19.1207  -31.0445  -44.7191 C.ar      10 UNK        -0.1009 
     11 C11        18.6874  -30.9777  -43.3907 C.ar      10 UNK        -0.0712 
     12 C12        17.5904  -30.1770  -43.0662 C.ar      10 UNK        -0.0894 
     13 C13        16.9530  -29.4160  -44.0479 C.ar      10 UNK        -0.0745 
     14 C14        17.3779  -29.5092  -45.3767 C.ar      10 UNK        -0.0972 
     15 C15        15.8225  -28.4730  -43.6704 C.3       10 UNK         0.0209 
     16 S16        16.4588  -26.8005  -43.3275 S.3       10 UNK        -0.2568 
     17 C17        17.0445  -26.9301  -41.6011 C.3       10 UNK        -0.0983 
     18 CA         18.5695  -27.1773  -41.4699 C.3       3 UNK         0.0876 
     19 N          19.3650  -26.2253  -42.2443 N.am      3 UNK        -0.4424 
     20 C          20.6792  -26.3329  -42.4836 C.2       2 UNK         0.4918 
     21 O          21.4145  -27.1857  -41.9803 O.2       2 UNK        -0.4875 
     22 CA         21.2053  -25.4150  -43.5937 C.3       2 UNK         0.0481 
     23 CB         22.7462  -25.4612  -43.7060 C.3       2 UNK        -0.1831 
     24 N          20.5203  -25.8849  -44.7986 N.am      2 UNK        -0.4498 
     25 C          20.7366  -25.6151  -46.0910 C.2       1 UNK         0.5027 
     26 O          21.6055  -24.8574  -46.5232 O.2       1 UNK        -0.4969 
     27 C          18.9912  -27.2058  -39.9904 C.2       3 UNK         0.5005 
     28 O          19.1639  -26.1443  -39.3862 O.2       3 UNK        -0.5279 
     29 N          19.1413  -28.4246  -39.4494 N.am      4 UNK        -0.4463 
     30 CA         19.6372  -28.7442  -38.1040 C.3       4 UNK         0.0283 
     31 CB         18.6630  -28.2385  -37.0184 C.3       4 UNK        -0.1875 
     32 C          21.0904  -28.2806  -37.8666 C.2       4 UNK         0.4949 
     33 O          21.4686  -28.0290  -36.7212 O.2       4 UNK        -0.5039 
     34 N          21.8786  -28.1730  -38.9444 N.am      5 UNK        -0.4663 
     35 CA         23.2428  -27.6597  -38.9316 C.3       5 UNK         0.0242 
     36 CB         23.2150  -26.1143  -38.9923 C.3       5 UNK        -0.1982 
     37 C          24.0681  -28.3342  -40.0399 C.2       5 UNK         0.5017 
     38 O          24.0993  -29.5648  -40.1094 O.2       5 UNK        -0.5012 
     39 N          24.7536  -27.5171  -40.8512 N.am      6 UNK        -0.4439 
     40 CA         25.8127  -27.8916  -41.7918 C.3       6 UNK         0.0297 
     41 CB         26.4257  -26.6102  -42.3815 C.3       6 UNK        -0.2006 
     42 C          25.4220  -28.8579  -42.9227 C.2       6 UNK         0.4892 
     43 O          26.3193  -29.4738  -43.4988 O.2       6 UNK        -0.5089 
     44 N          24.1255  -29.0040  -43.2273 N.am      7 UNK        -0.4243 
     45 CA         23.6099  -29.8666  -44.2993 C.3       7 UNK         0.0196 
     46 CB         22.2443  -29.3307  -44.7539 C.3       7 UNK        -0.2007 
     47 C          23.5684  -31.3682  -43.9358 C.2       7 UNK         0.5020 
     48 O          22.6496  -32.0729  -44.3554 O.2       7 UNK        -0.5147 
     49 N          24.5668  -31.8326  -43.1689 N.am      8 UNK        -0.4734 
     50 CA         24.7538  -33.1968  -42.6551 C.3       8 UNK         0.0238 
     51 CB         25.0860  -34.1685  -43.8079 C.3       8 UNK        -0.1912 
     52 C          23.5803  -33.6851  -41.7816 C.2       8 UNK         0.5038 
     53 O          23.2501  -34.8728  -41.8040 O.2       8 UNK        -0.5046 
     54 N          22.9663  -32.7569  -41.0368 N.am      9 UNK        -0.4200 
     55 CA         21.7688  -33.0014  -40.2201 C.3       9 UNK         0.0839 
     56 C          22.0275  -33.7741  -38.8942 C.2       9 UNK         0.5513 
     57 N          23.2690  -33.9753  -38.4690 N.am      9 UNK        -0.7519 
     58 O          21.0797  -34.2020  -38.2408 O.2       9 UNK        -0.4960 
     59 C59        20.9784  -31.6954  -39.9505 C.3       10 UNK        -0.0876 
     60 S60        20.6187  -30.7056  -41.4422 S.3       10 UNK        -0.2414 
     61 C61        19.4037  -31.7554  -42.2968 C.3       10 UNK         0.0169 
     62 H62        15.8658  -25.9250  -46.2396 H         1 UNK         0.0903 
     63 H63        16.1273  -24.3646  -45.4546 H         1 UNK         0.0903 
     64 H64        15.6730  -24.4343  -47.1598 H         1 UNK         0.0903 
     65 H65        17.8701  -26.9319  -46.3834 H         1 UNK         0.3096 
     66 H66        19.9292  -25.9100  -48.0541 H         1 UNK         0.1121 
     67 H67        21.1296  -27.9901  -47.5412 H         1 UNK         0.0849 
     68 H68        20.1543  -28.2627  -46.1195 H         1 UNK         0.0849 
     69 H69        18.3007  -31.1333  -47.6935 H         1 UNK         0.0865 
     70 H70        19.9526  -30.8494  -47.2082 H         1 UNK         0.0865 
     71 H71        19.9719  -31.6647  -44.9671 H         1 UNK         0.1346 
     72 H72        17.2543  -30.1194  -42.0403 H         1 UNK         0.1412 
     73 H73        16.8646  -28.9422  -46.1405 H         1 UNK         0.1426 
     74 H74        15.2678  -28.8516  -42.8106 H         1 UNK         0.0716 
     75 H75        15.1053  -28.4131  -44.4905 H         1 UNK         0.0716 
     76 H76        16.4849  -27.7170  -41.0923 H         1 UNK         0.0695 
     77 H77        16.7715  -25.9994  -41.0996 H         1 UNK         0.0695 
     78 H78        18.7950  -28.1544  -41.8956 H         1 UNK         0.0983 
     79 H79        18.8435  -25.4823  -42.6856 H         1 UNK         0.3095 
     80 H80        20.8899  -24.3922  -43.3812 H         1 UNK         0.0454 
     81 H81        23.1068  -26.4379  -44.0230 H         1 UNK         0.0851 
     82 H82        23.2099  -25.2397  -42.7443 H         1 UNK         0.0851 
     83 H83        23.1214  -24.7210  -44.4115 H         1 UNK         0.0851 
     84 H84        19.7594  -26.5213  -44.6007 H         1 UNK         0.2976 
     85 H85        19.0003  -29.2265  -40.0491 H         1 UNK         0.3116 
     86 H86        19.6553  -29.8323  -38.0375 H         1 UNK         0.0646 
     87 H87        18.6500  -27.1499  -36.9594 H         1 UNK         0.0847 
     88 H88        18.9474  -28.6112  -36.0336 H         1 UNK         0.0847 
     89 H89        17.6446  -28.5770  -37.2084 H         1 UNK         0.0847 
     90 H90        21.5109  -28.4102  -39.8582 H         1 UNK         0.3040 
     91 H91        23.7220  -27.9532  -37.9949 H         1 UNK         0.1015 
     92 H92        22.7501  -25.7523  -39.9104 H         1 UNK         0.0786 
     93 H93        24.2173  -25.6894  -38.9243 H         1 UNK         0.0786 
     94 H94        22.6466  -25.7015  -38.1585 H         1 UNK         0.0786 
     95 H95        24.6173  -26.5261  -40.7161 H         1 UNK         0.3172 
     96 H96        26.5862  -28.3950  -41.2082 H         1 UNK         0.0595 
     97 H97        25.6950  -26.0397  -42.9558 H         1 UNK         0.0839 
     98 H98        27.2531  -26.8445  -43.0532 H         1 UNK         0.0839 
     99 H99        26.8235  -25.9611  -41.6012 H         1 UNK         0.0839 
    100 H100       23.4392  -28.5104  -42.6705 H         1 UNK         0.2998 
    101 H101       24.2840  -29.7858  -45.1547 H         1 UNK         0.0822 
    102 H102       22.3294  -28.3085  -45.1176 H         1 UNK         0.0787 
    103 H103       21.8410  -29.9271  -45.5727 H         1 UNK         0.0787 
    104 H104       21.5135  -29.3423  -43.9450 H         1 UNK         0.0787 
    105 H105       25.2919  -31.1656  -42.9278 H         1 UNK         0.3055 
    106 H106       25.6217  -33.1607  -41.9947 H         1 UNK         0.1106 
    107 H107       25.3565  -35.1535  -43.4255 H         1 UNK         0.0828 
    108 H108       24.2379  -34.3029  -44.4800 H         1 UNK         0.0828 
    109 H109       25.9290  -33.8103  -44.3987 H         1 UNK         0.0828 
    110 H110       23.2947  -31.8012  -41.0722 H         1 UNK         0.2931 
    111 H111       21.1152  -33.6493  -40.8071 H         1 UNK         0.0412 
    112 H112       24.0520  -33.6249  -38.9971 H         1 UNK         0.3472 
    113 H113       23.4229  -34.4804  -37.6103 H         1 UNK         0.3472 
    114 H114       20.0346  -31.9169  -39.4485 H         1 UNK         0.0970 
    115 H115       21.5454  -31.0621  -39.2663 H         1 UNK         0.0970 
    116 H116       19.9143  -32.6224  -42.7189 H         1 UNK         0.0612 
    117 H117       18.6764  -32.1380  -41.5792 H         1 UNK         0.0612 
@<TRIPOS>BOND
     1    1    2 1    
     2    1   62 1    
     3    1   63 1    
     4    1   64 1    
     5    2    3 2    
     6    2    4 am   BACKBONE|DICT|INTERRES
     7    4    5 1    
     8    4   65 1    
     9    5    6 1    
    10    5   25 1    
    11    5   66 1    
    12    6    7 1    
    13    6   67 1    
    14    6   68 1    
    15    7    8 1    
    16    8    9 1    
    17    8   69 1    
    18    8   70 1    
    19    9   10 ar   
    20    9   14 ar   
    21   10   11 ar   
    22   10   71 1    
    23   11   12 ar   
    24   11   61 1    
    25   12   13 ar   
    26   12   72 1    
    27   13   14 ar   
    28   13   15 1    
    29   14   73 1    
    30   15   16 1    
    31   15   74 1    
    32   15   75 1    
    33   16   17 1    
    34   17   18 1    
    35   17   76 1    
    36   17   77 1    
    37   18   19 1    
    38   18   27 1    
    39   18   78 1    
    40   19   20 am   BACKBONE|DICT|INTERRES
    41   19   79 1    
    42   20   21 2    
    43   20   22 1    
    44   22   23 1    
    45   22   24 1    
    46   22   80 1    
    47   23   81 1    
    48   23   82 1    
    49   23   83 1    
    50   24   25 am   BACKBONE|DICT|INTERRES
    51   24   84 1    
    52   25   26 2    
    53   27   28 2    
    54   27   29 am   BACKBONE|DICT|INTERRES
    55   29   30 1    
    56   29   85 1    
    57   30   31 1    
    58   30   32 1    
    59   30   86 1    
    60   31   87 1    
    61   31   88 1    
    62   31   89 1    
    63   32   33 2    
    64   32   34 am   BACKBONE|DICT|INTERRES
    65   34   35 1    
    66   34   90 1    
    67   35   36 1    
    68   35   37 1    
    69   35   91 1    
    70   36   92 1    
    71   36   93 1    
    72   36   94 1    
    73   37   38 2    
    74   37   39 am   BACKBONE|DICT|INTERRES
    75   39   40 1    
    76   39   95 1    
    77   40   41 1    
    78   40   42 1    
    79   40   96 1    
    80   41   97 1    
    81   41   98 1    
    82   41   99 1    
    83   42   43 2    
    84   42   44 am   BACKBONE|DICT|INTERRES
    85   44   45 1    
    86   44  100 1    
    87   45   46 1    
    88   45   47 1    
    89   45  101 1    
    90   46  102 1    
    91   46  103 1    
    92   46  104 1    
    93   47   48 2    
    94   47   49 am   BACKBONE|DICT|INTERRES
    95   49   50 1    
    96   49  105 1    
    97   50   51 1    
    98   50   52 1    
    99   50  106 1    
   100   51  107 1    
   101   51  108 1    
   102   51  109 1    
   103   52   53 2    
   104   52   54 am   BACKBONE|DICT|INTERRES
   105   54   55 1    
   106   54  110 1    
   107   55   56 1    
   108   55   59 1    
   109   55  111 1    
   110   56   57 am   BACKBONE|DICT|INTERRES
   111   56   58 2    
   112   57  112 1    
   113   57  113 1    
   114   59   60 1    
   115   59  114 1    
   116   59  115 1    
   117   60   61 1    
   118   61  116 1    
   119   61  117 1    
@<TRIPOS>SUBSTRUCTURE
     1 UNK         1 GROUP             0       ****    0 ROOT    
