@<TRIPOS>MOLECULE
3R8
117   119    1
SMALL
USER_CHARGES


@<TRIPOS>ATOM
      1 CA         15.8774  -28.2467  -39.0085 C.3       0 UNK        -0.2013 
      2 C          15.9469  -27.3339  -40.2237 C.2       0 UNK         0.4866 
      3 O          15.7598  -26.1238  -40.0960 O.2       0 UNK        -0.5176 
      4 N          16.2225  -27.9067  -41.3999 N.am      1 UNK        -0.4884 
      5 CA         16.4717  -27.1885  -42.6540 C.3       1 UNK         0.0853 
      6 C6         16.3213  -28.0934  -43.9027 C.3       10 UNK        -0.0849 
      7 S7         14.8198  -29.1334  -43.9182 S.3       10 UNK        -0.2776 
      8 C8         14.9791  -30.0343  -45.5024 C.3       10 UNK         0.0316 
      9 C9         16.4142  -30.4321  -45.8353 C.ar      10 UNK        -0.0863 
     10 C10        17.1211  -31.3123  -45.0088 C.ar      10 UNK        -0.1009 
     11 C11        18.4542  -31.6303  -45.2881 C.ar      10 UNK        -0.0712 
     12 C12        19.0690  -31.0910  -46.4194 C.ar      10 UNK        -0.0894 
     13 C13        18.3762  -30.2049  -47.2496 C.ar      10 UNK        -0.0745 
     14 C14        17.0486  -29.8827  -46.9538 C.ar      10 UNK        -0.0972 
     15 C15        19.0549  -29.5904  -48.4667 C.3       10 UNK         0.0209 
     16 S16        20.6718  -28.8438  -48.0802 S.3       10 UNK        -0.2568 
     17 C17        20.2270  -27.4914  -46.9235 C.3       10 UNK        -0.0983 
     18 CA         21.2024  -27.1749  -45.7394 C.3       3 UNK         0.0876 
     19 N          20.5729  -27.3671  -44.4209 N.am      3 UNK        -0.4424 
     20 C          21.0432  -26.8410  -43.2772 C.2       2 UNK         0.4918 
     21 O          22.0762  -26.1721  -43.2218 O.2       2 UNK        -0.4875 
     22 CA         20.2729  -27.1340  -41.9749 C.3       2 UNK         0.0481 
     23 CB         20.4700  -26.0235  -40.9205 C.3       2 UNK        -0.1831 
     24 N          18.8476  -27.4217  -42.1576 N.am      2 UNK        -0.4498 
     25 C          17.8958  -26.6021  -42.6378 C.2       1 UNK         0.5027 
     26 O          18.0974  -25.4605  -43.0522 O.2       1 UNK        -0.4969 
     27 C          22.6085  -27.8209  -45.8245 C.2       3 UNK         0.5005 
     28 O          23.4530  -27.3370  -46.5808 O.2       3 UNK        -0.5279 
     29 N          22.8485  -28.8648  -45.0145 N.am      4 UNK        -0.4463 
     30 CA         24.1481  -29.5175  -44.8388 C.3       4 UNK         0.0283 
     31 CB         23.9561  -30.8090  -44.0267 C.3       4 UNK        -0.1875 
     32 C          25.2112  -28.6264  -44.1679 C.2       4 UNK         0.4949 
     33 O          26.3977  -28.9320  -44.2897 O.2       4 UNK        -0.5039 
     34 N          24.7821  -27.5702  -43.4568 N.am      5 UNK        -0.4663 
     35 CA         25.5586  -26.5518  -42.7306 C.3       5 UNK         0.0242 
     36 CB         26.4729  -25.7585  -43.6839 C.3       5 UNK        -0.1982 
     37 C          26.3455  -27.0774  -41.5163 C.2       5 UNK         0.5017 
     38 O          26.3114  -26.4486  -40.4585 O.2       5 UNK        -0.5012 
     39 N          27.0211  -28.2208  -41.6771 N.am      6 UNK        -0.4439 
     40 CA         27.7674  -28.9337  -40.6378 C.3       6 UNK         0.0297 
     41 CB         28.6799  -29.9744  -41.3067 C.3       6 UNK        -0.2006 
     42 C          26.8656  -29.6078  -39.5867 C.2       6 UNK         0.4892 
     43 O          27.3497  -29.9244  -38.4992 O.2       6 UNK        -0.5089 
     44 N          25.5865  -29.8159  -39.9196 N.am      7 UNK        -0.4243 
     45 CA         24.5580  -30.3588  -39.0425 C.3       7 UNK         0.0196 
     46 CB         24.4534  -31.8803  -39.2446 C.3       7 UNK        -0.2007 
     47 C          23.2318  -29.6756  -39.3800 C.2       7 UNK         0.5020 
     48 O          22.9854  -29.3587  -40.5472 O.2       7 UNK        -0.5147 
     49 N          22.3764  -29.5066  -38.3658 N.am      8 UNK        -0.4734 
     50 CA         21.0280  -28.9472  -38.4900 C.3       8 UNK         0.0238 
     51 CB         20.6401  -28.2639  -37.1651 C.3       8 UNK        -0.1912 
     52 C          20.0172  -30.0254  -38.9246 C.2       8 UNK         0.5038 
     53 O          19.0478  -30.2844  -38.2090 O.2       8 UNK        -0.5046 
     54 N          20.2957  -30.6697  -40.0644 N.am      9 UNK        -0.4200 
     55 CA         19.5005  -31.7666  -40.6296 C.3       9 UNK         0.0839 
     56 C          18.0720  -31.3334  -41.0651 C.2       9 UNK         0.5513 
     57 N          17.1165  -32.2523  -41.0652 N.am      9 UNK        -0.7519 
     58 O          17.8355  -30.1851  -41.4345 O.2       9 UNK        -0.4960 
     59 C59        20.2839  -32.5030  -41.7500 C.3       10 UNK        -0.0876 
     60 S60        20.4002  -31.5844  -43.3277 S.3       10 UNK        -0.2414 
     61 C61        19.2395  -32.5406  -44.3607 C.3       10 UNK         0.0169 
     62 H62        14.8946  -28.1808  -38.5428 H         1 UNK         0.0903 
     63 H63        16.0603  -29.2888  -39.2717 H         1 UNK         0.0903 
     64 H64        16.6259  -27.9507  -38.2738 H         1 UNK         0.0903 
     65 H65        16.4374  -28.9001  -41.4296 H         1 UNK         0.3096 
     66 H66        15.7602  -26.3634  -42.7325 H         1 UNK         0.1121 
     67 H67        16.3361  -27.4895  -44.8122 H         1 UNK         0.0849 
     68 H68        17.1785  -28.7652  -43.9676 H         1 UNK         0.0849 
     69 H69        14.3581  -30.9303  -45.4643 H         1 UNK         0.0865 
     70 H70        14.5614  -29.4112  -46.2948 H         1 UNK         0.0865 
     71 H71        16.6425  -31.7189  -44.1282 H         1 UNK         0.1346 
     72 H72        20.0990  -31.3394  -46.6367 H         1 UNK         0.1412 
     73 H73        16.5108  -29.1933  -47.5906 H         1 UNK         0.1426 
     74 H74        19.1981  -30.3687  -49.2173 H         1 UNK         0.0716 
     75 H75        18.4215  -28.8300  -48.9263 H         1 UNK         0.0716 
     76 H76        20.1300  -26.5961  -47.5396 H         1 UNK         0.0695 
     77 H77        19.2189  -27.6672  -46.5459 H         1 UNK         0.0695 
     78 H78        21.3999  -26.1015  -45.8004 H         1 UNK         0.0983 
     79 H79        19.7357  -27.9295  -44.3907 H         1 UNK         0.3095 
     80 H80        20.7074  -28.0525  -41.5811 H         1 UNK         0.0454 
     81 H81        20.1781  -25.0462  -41.3065 H         1 UNK         0.0851 
     82 H82        19.8829  -26.2120  -40.0220 H         1 UNK         0.0851 
     83 H83        21.5156  -25.9523  -40.6178 H         1 UNK         0.0851 
     84 H84        18.5484  -28.3497  -41.8685 H         1 UNK         0.2976 
     85 H85        22.0888  -29.2069  -44.4436 H         1 UNK         0.3116 
     86 H86        24.5253  -29.7858  -45.8278 H         1 UNK         0.0646 
     87 H87        24.9047  -31.3292  -43.8860 H         1 UNK         0.0847 
     88 H88        23.2844  -31.5010  -44.5348 H         1 UNK         0.0847 
     89 H89        23.5457  -30.6079  -43.0360 H         1 UNK         0.0847 
     90 H90        23.7802  -27.4179  -43.4202 H         1 UNK         0.3040 
     91 H91        24.8179  -25.8535  -42.3359 H         1 UNK         0.1015 
     92 H92        25.9027  -25.3194  -44.5027 H         1 UNK         0.0786 
     93 H93        27.2546  -26.3830  -44.1173 H         1 UNK         0.0786 
     94 H94        26.9671  -24.9408  -43.1575 H         1 UNK         0.0786 
     95 H95        26.9842  -28.6443  -42.6034 H         1 UNK         0.3172 
     96 H96        28.3965  -28.2103  -40.1150 H         1 UNK         0.0595 
     97 H97        29.2745  -30.5085  -40.5642 H         1 UNK         0.0839 
     98 H98        29.3773  -29.5040  -42.0002 H         1 UNK         0.0839 
     99 H99        28.1052  -30.7178  -41.8609 H         1 UNK         0.0839 
    100 H100       25.2458  -29.4765  -40.8097 H         1 UNK         0.2998 
    101 H101       24.8081  -30.1427  -38.0013 H         1 UNK         0.0822 
    102 H102       24.2001  -32.1327  -40.2754 H         1 UNK         0.0787 
    103 H103       25.3925  -32.3771  -39.0000 H         1 UNK         0.0787 
    104 H104       23.6825  -32.3094  -38.6033 H         1 UNK         0.0787 
    105 H105       22.6395  -29.8380  -37.4480 H         1 UNK         0.3055 
    106 H106       21.0348  -28.1797  -39.2626 H         1 UNK         0.1106 
    107 H107       19.6532  -27.8044  -37.2374 H         1 UNK         0.0828 
    108 H108       20.6102  -28.9724  -36.3365 H         1 UNK         0.0828 
    109 H109       21.3441  -27.4730  -36.9058 H         1 UNK         0.0828 
    110 H110       21.1128  -30.3840  -40.5899 H         1 UNK         0.2931 
    111 H111       19.3725  -32.4833  -39.8156 H         1 UNK         0.0412 
    112 H112       16.1878  -31.9916  -41.3556 H         1 UNK         0.3472 
    113 H113       17.2996  -33.1973  -40.7664 H         1 UNK         0.3472 
    114 H114       19.8404  -33.4842  -41.9250 H         1 UNK         0.0970 
    115 H115       21.2990  -32.7161  -41.4110 H         1 UNK         0.0970 
    116 H116       18.5457  -33.1047  -43.7359 H         1 UNK         0.0612 
    117 H117       19.7981  -33.2757  -44.9418 H         1 UNK         0.0612 
@<TRIPOS>BOND
     1    1    2 1    
     2    1   62 1    
     3    1   63 1    
     4    1   64 1    
     5    2    3 2    
     6    2    4 am   BACKBONE|DICT|INTERRES
     7    4    5 1    
     8    4   65 1    
     9    5    6 1    
    10    5   25 1    
    11    5   66 1    
    12    6    7 1    
    13    6   67 1    
    14    6   68 1    
    15    7    8 1    
    16    8    9 1    
    17    8   69 1    
    18    8   70 1    
    19    9   10 ar   
    20    9   14 ar   
    21   10   11 ar   
    22   10   71 1    
    23   11   12 ar   
    24   11   61 1    
    25   12   13 ar   
    26   12   72 1    
    27   13   14 ar   
    28   13   15 1    
    29   14   73 1    
    30   15   16 1    
    31   15   74 1    
    32   15   75 1    
    33   16   17 1    
    34   17   18 1    
    35   17   76 1    
    36   17   77 1    
    37   18   19 1    
    38   18   27 1    
    39   18   78 1    
    40   19   20 am   BACKBONE|DICT|INTERRES
    41   19   79 1    
    42   20   21 2    
    43   20   22 1    
    44   22   23 1    
    45   22   24 1    
    46   22   80 1    
    47   23   81 1    
    48   23   82 1    
    49   23   83 1    
    50   24   25 am   BACKBONE|DICT|INTERRES
    51   24   84 1    
    52   25   26 2    
    53   27   28 2    
    54   27   29 am   BACKBONE|DICT|INTERRES
    55   29   30 1    
    56   29   85 1    
    57   30   31 1    
    58   30   32 1    
    59   30   86 1    
    60   31   87 1    
    61   31   88 1    
    62   31   89 1    
    63   32   33 2    
    64   32   34 am   BACKBONE|DICT|INTERRES
    65   34   35 1    
    66   34   90 1    
    67   35   36 1    
    68   35   37 1    
    69   35   91 1    
    70   36   92 1    
    71   36   93 1    
    72   36   94 1    
    73   37   38 2    
    74   37   39 am   BACKBONE|DICT|INTERRES
    75   39   40 1    
    76   39   95 1    
    77   40   41 1    
    78   40   42 1    
    79   40   96 1    
    80   41   97 1    
    81   41   98 1    
    82   41   99 1    
    83   42   43 2    
    84   42   44 am   BACKBONE|DICT|INTERRES
    85   44   45 1    
    86   44  100 1    
    87   45   46 1    
    88   45   47 1    
    89   45  101 1    
    90   46  102 1    
    91   46  103 1    
    92   46  104 1    
    93   47   48 2    
    94   47   49 am   BACKBONE|DICT|INTERRES
    95   49   50 1    
    96   49  105 1    
    97   50   51 1    
    98   50   52 1    
    99   50  106 1    
   100   51  107 1    
   101   51  108 1    
   102   51  109 1    
   103   52   53 2    
   104   52   54 am   BACKBONE|DICT|INTERRES
   105   54   55 1    
   106   54  110 1    
   107   55   56 1    
   108   55   59 1    
   109   55  111 1    
   110   56   57 am   BACKBONE|DICT|INTERRES
   111   56   58 2    
   112   57  112 1    
   113   57  113 1    
   114   59   60 1    
   115   59  114 1    
   116   59  115 1    
   117   60   61 1    
   118   61  116 1    
   119   61  117 1    
@<TRIPOS>SUBSTRUCTURE
     1 UNK         1 GROUP             0       ****    0 ROOT    
