@<TRIPOS>MOLECULE
3R8
117   119    1
SMALL
USER_CHARGES


@<TRIPOS>ATOM
      1 CA         15.3646  -23.6434  -48.3112 C.3       0 UNK        -0.2013 
      2 C          16.4977  -24.6484  -48.1674 C.2       0 UNK         0.4866 
      3 O          16.8712  -25.2956  -49.1460 O.2       0 UNK        -0.5176 
      4 N          17.0482  -24.7836  -46.9574 N.am      1 UNK        -0.4884 
      5 CA         18.1624  -25.6681  -46.6246 C.3       1 UNK         0.0853 
      6 C6         17.6903  -27.1250  -46.3883 C.3       10 UNK        -0.0849 
      7 S7         19.0487  -28.3379  -46.4983 S.3       10 UNK        -0.2776 
      8 C8         18.2075  -29.8562  -45.9487 C.3       10 UNK         0.0316 
      9 C9         18.2202  -30.0022  -44.4331 C.ar      10 UNK        -0.0863 
     10 C10        19.2394  -30.7298  -43.8112 C.ar      10 UNK        -0.1009 
     11 C11        19.2398  -30.9097  -42.4254 C.ar      10 UNK        -0.0712 
     12 C12        18.2180  -30.3449  -41.6574 C.ar      10 UNK        -0.0894 
     13 C13        17.2003  -29.6015  -42.2640 C.ar      10 UNK        -0.0745 
     14 C14        17.2016  -29.4438  -43.6536 C.ar      10 UNK        -0.0972 
     15 C15        16.0817  -28.9952  -41.4249 C.3       10 UNK         0.0209 
     16 S16        16.6964  -27.8624  -40.1349 S.3       10 UNK        -0.2568 
     17 C17        17.4400  -26.5133  -41.1145 C.3       10 UNK        -0.0983 
     18 CA         18.9864  -26.5974  -41.2102 C.3       3 UNK         0.0876 
     19 N          19.4699  -25.8263  -42.3645 N.am      3 UNK        -0.4424 
     20 C          20.7206  -25.8301  -42.8419 C.2       2 UNK         0.4918 
     21 O          21.6386  -26.4601  -42.3217 O.2       2 UNK        -0.4875 
     22 CA         20.9866  -24.9703  -44.0932 C.3       2 UNK         0.0481 
     23 CB         22.4652  -24.9981  -44.5238 C.3       2 UNK        -0.1831 
     24 N          20.1542  -25.3840  -45.2245 N.am      2 UNK        -0.4498 
     25 C          18.8602  -25.0831  -45.3863 C.2       1 UNK         0.5027 
     26 O          18.2136  -24.3990  -44.5855 O.2       1 UNK        -0.4969 
     27 C          19.6853  -26.2193  -39.8783 C.2       3 UNK         0.5005 
     28 O          19.7278  -27.0344  -38.9559 O.2       3 UNK        -0.5279 
     29 N          20.2461  -25.0023  -39.8050 N.am      4 UNK        -0.4463 
     30 CA         21.0763  -24.5255  -38.6951 C.3       4 UNK         0.0283 
     31 CB         21.1659  -22.9920  -38.7637 C.3       4 UNK        -0.1875 
     32 C          22.4903  -25.1436  -38.6656 C.2       4 UNK         0.4949 
     33 O          23.1462  -25.0709  -37.6256 O.2       4 UNK        -0.5039 
     34 N          22.9445  -25.7174  -39.7876 N.am      5 UNK        -0.4663 
     35 CA         24.2240  -26.4141  -39.9268 C.3       5 UNK         0.0242 
     36 CB         24.8649  -25.9879  -41.2620 C.3       5 UNK        -0.1982 
     37 C          24.0063  -27.9371  -39.8757 C.2       5 UNK         0.5017 
     38 O          22.8741  -28.3993  -39.7174 O.2       5 UNK        -0.5012 
     39 N          25.1021  -28.6987  -40.0136 N.am      6 UNK        -0.4439 
     40 CA         25.0848  -30.1647  -40.0768 C.3       6 UNK         0.0297 
     41 CB         26.5215  -30.7092  -40.0226 C.3       6 UNK        -0.2006 
     42 C          24.3457  -30.7006  -41.3157 C.2       6 UNK         0.4892 
     43 O          23.5922  -31.6637  -41.1870 O.2       6 UNK        -0.5089 
     44 N          24.5814  -30.0590  -42.4738 N.am      7 UNK        -0.4243 
     45 CA         23.9035  -30.2232  -43.7715 C.3       7 UNK         0.0196 
     46 CB         22.6423  -29.3369  -43.8080 C.3       7 UNK        -0.2007 
     47 C          23.6473  -31.6798  -44.2184 C.2       7 UNK         0.5020 
     48 O          22.5967  -31.9785  -44.7867 O.2       7 UNK        -0.5147 
     49 N          24.6239  -32.5566  -43.9449 N.am      8 UNK        -0.4734 
     50 CA         24.6418  -33.9990  -44.2245 C.3       8 UNK         0.0238 
     51 CB         24.5798  -34.2703  -45.7439 C.3       8 UNK        -0.1912 
     52 C          23.6105  -34.8375  -43.4364 C.2       8 UNK         0.5038 
     53 O          23.4151  -36.0049  -43.7817 O.2       8 UNK        -0.5046 
     54 N          23.0000  -34.2768  -42.3821 N.am      9 UNK        -0.4200 
     55 CA         22.1881  -35.0311  -41.4136 C.3       9 UNK         0.0839 
     56 C          23.0788  -35.8890  -40.4734 C.2       9 UNK         0.5513 
     57 N          22.5673  -37.0165  -39.9984 N.am      9 UNK        -0.7519 
     58 O          24.2072  -35.5294  -40.1416 O.2       9 UNK        -0.4960 
     59 C59        21.2494  -34.1109  -40.5908 C.3       10 UNK        -0.0876 
     60 S60        19.8640  -33.4584  -41.5816 S.3       10 UNK        -0.2414 
     61 C61        20.3412  -31.7157  -41.7571 C.3       10 UNK         0.0169 
     62 H62        14.4608  -24.1442  -48.6574 H         1 UNK         0.0903 
     63 H63        15.1369  -23.1477  -47.3676 H         1 UNK         0.0903 
     64 H64        15.6313  -22.8787  -49.0403 H         1 UNK         0.0903 
     65 H65        16.7476  -24.2050  -46.1809 H         1 UNK         0.3096 
     66 H66        18.8723  -25.6427  -47.4551 H         1 UNK         0.1121 
     67 H67        16.9539  -27.4061  -47.1429 H         1 UNK         0.0849 
     68 H68        17.1821  -27.2119  -45.4278 H         1 UNK         0.0849 
     69 H69        17.1835  -29.8748  -46.3252 H         1 UNK         0.0865 
     70 H70        18.7073  -30.7128  -46.4039 H         1 UNK         0.0865 
     71 H71        20.0293  -31.1686  -44.4064 H         1 UNK         0.1346 
     72 H72        18.2149  -30.4823  -40.5845 H         1 UNK         0.1412 
     73 H73        16.4008  -28.8957  -44.1293 H         1 UNK         0.1426 
     74 H74        15.3645  -28.4625  -42.0514 H         1 UNK         0.0716 
     75 H75        15.5276  -29.8031  -40.9452 H         1 UNK         0.0716 
     76 H76        17.1297  -25.5576  -40.6879 H         1 UNK         0.0695 
     77 H77        17.0001  -26.5455  -42.1130 H         1 UNK         0.0695 
     78 H78        19.2593  -27.6356  -41.4122 H         1 UNK         0.0983 
     79 H79        18.7818  -25.2791  -42.8714 H         1 UNK         0.3095 
     80 H80        20.7400  -23.9385  -43.8340 H         1 UNK         0.0454 
     81 H81        22.6429  -24.3430  -45.3766 H         1 UNK         0.0851 
     82 H82        22.7886  -26.0025  -44.7989 H         1 UNK         0.0851 
     83 H83        23.1139  -24.6562  -43.7163 H         1 UNK         0.0851 
     84 H84        20.5867  -26.0090  -45.8908 H         1 UNK         0.2976 
     85 H85        20.1557  -24.3897  -40.6023 H         1 UNK         0.3116 
     86 H86        20.5837  -24.7950  -37.7583 H         1 UNK         0.0646 
     87 H87        20.1787  -22.5324  -38.7133 H         1 UNK         0.0847 
     88 H88        21.7465  -22.5975  -37.9285 H         1 UNK         0.0847 
     89 H89        21.6490  -22.6555  -39.6819 H         1 UNK         0.0847 
     90 H90        22.3089  -25.8373  -40.5703 H         1 UNK         0.3040 
     91 H91        24.8952  -26.1399  -39.1099 H         1 UNK         0.1015 
     92 H92        24.3014  -26.3598  -42.1185 H         1 UNK         0.0786 
     93 H93        25.8839  -26.3645  -41.3543 H         1 UNK         0.0786 
     94 H94        24.9194  -24.9023  -41.3460 H         1 UNK         0.0786 
     95 H95        26.0001  -28.2476  -40.1143 H         1 UNK         0.3172 
     96 H96        24.5535  -30.5286  -39.1945 H         1 UNK         0.0595 
     97 H97        27.1241  -30.3582  -40.8611 H         1 UNK         0.0839 
     98 H98        26.5245  -31.7999  -40.0534 H         1 UNK         0.0839 
     99 H99        27.0233  -30.4134  -39.1011 H         1 UNK         0.0839 
    100 H100       25.2555  -29.3077  -42.4415 H         1 UNK         0.2998 
    101 H101       24.5895  -29.8232  -44.5197 H         1 UNK         0.0822 
    102 H102       22.0902  -29.4466  -44.7423 H         1 UNK         0.0787 
    103 H103       21.9602  -29.5630  -42.9896 H         1 UNK         0.0787 
    104 H104       22.9122  -28.2854  -43.7229 H         1 UNK         0.0787 
    105 H105       25.4318  -32.2027  -43.4508 H         1 UNK         0.3055 
    106 H106       25.6142  -34.3510  -43.8764 H         1 UNK         0.1106 
    107 H107       24.7690  -35.3218  -45.9633 H         1 UNK         0.0828 
    108 H108       23.6023  -34.0258  -46.1603 H         1 UNK         0.0828 
    109 H109       25.3294  -33.6910  -46.2826 H         1 UNK         0.0828 
    110 H110       23.2305  -33.3218  -42.1228 H         1 UNK         0.2931 
    111 H111       21.5583  -35.7227  -41.9778 H         1 UNK         0.0412 
    112 H112       23.1220  -37.5831  -39.3753 H         1 UNK         0.3472 
    113 H113       21.6407  -37.3189  -40.2582 H         1 UNK         0.3472 
    114 H114       21.8087  -33.2969  -40.1273 H         1 UNK         0.0970 
    115 H115       20.7996  -34.6649  -39.7645 H         1 UNK         0.0970 
    116 H116       20.5767  -31.2904  -40.7802 H         1 UNK         0.0612 
    117 H117       21.2532  -31.6676  -42.3496 H         1 UNK         0.0612 
@<TRIPOS>BOND
     1    1    2 1    
     2    1   62 1    
     3    1   63 1    
     4    1   64 1    
     5    2    3 2    
     6    2    4 am   BACKBONE|DICT|INTERRES
     7    4    5 1    
     8    4   65 1    
     9    5    6 1    
    10    5   25 1    
    11    5   66 1    
    12    6    7 1    
    13    6   67 1    
    14    6   68 1    
    15    7    8 1    
    16    8    9 1    
    17    8   69 1    
    18    8   70 1    
    19    9   10 ar   
    20    9   14 ar   
    21   10   11 ar   
    22   10   71 1    
    23   11   12 ar   
    24   11   61 1    
    25   12   13 ar   
    26   12   72 1    
    27   13   14 ar   
    28   13   15 1    
    29   14   73 1    
    30   15   16 1    
    31   15   74 1    
    32   15   75 1    
    33   16   17 1    
    34   17   18 1    
    35   17   76 1    
    36   17   77 1    
    37   18   19 1    
    38   18   27 1    
    39   18   78 1    
    40   19   20 am   BACKBONE|DICT|INTERRES
    41   19   79 1    
    42   20   21 2    
    43   20   22 1    
    44   22   23 1    
    45   22   24 1    
    46   22   80 1    
    47   23   81 1    
    48   23   82 1    
    49   23   83 1    
    50   24   25 am   BACKBONE|DICT|INTERRES
    51   24   84 1    
    52   25   26 2    
    53   27   28 2    
    54   27   29 am   BACKBONE|DICT|INTERRES
    55   29   30 1    
    56   29   85 1    
    57   30   31 1    
    58   30   32 1    
    59   30   86 1    
    60   31   87 1    
    61   31   88 1    
    62   31   89 1    
    63   32   33 2    
    64   32   34 am   BACKBONE|DICT|INTERRES
    65   34   35 1    
    66   34   90 1    
    67   35   36 1    
    68   35   37 1    
    69   35   91 1    
    70   36   92 1    
    71   36   93 1    
    72   36   94 1    
    73   37   38 2    
    74   37   39 am   BACKBONE|DICT|INTERRES
    75   39   40 1    
    76   39   95 1    
    77   40   41 1    
    78   40   42 1    
    79   40   96 1    
    80   41   97 1    
    81   41   98 1    
    82   41   99 1    
    83   42   43 2    
    84   42   44 am   BACKBONE|DICT|INTERRES
    85   44   45 1    
    86   44  100 1    
    87   45   46 1    
    88   45   47 1    
    89   45  101 1    
    90   46  102 1    
    91   46  103 1    
    92   46  104 1    
    93   47   48 2    
    94   47   49 am   BACKBONE|DICT|INTERRES
    95   49   50 1    
    96   49  105 1    
    97   50   51 1    
    98   50   52 1    
    99   50  106 1    
   100   51  107 1    
   101   51  108 1    
   102   51  109 1    
   103   52   53 2    
   104   52   54 am   BACKBONE|DICT|INTERRES
   105   54   55 1    
   106   54  110 1    
   107   55   56 1    
   108   55   59 1    
   109   55  111 1    
   110   56   57 am   BACKBONE|DICT|INTERRES
   111   56   58 2    
   112   57  112 1    
   113   57  113 1    
   114   59   60 1    
   115   59  114 1    
   116   59  115 1    
   117   60   61 1    
   118   61  116 1    
   119   61  117 1    
@<TRIPOS>SUBSTRUCTURE
     1 UNK         1 GROUP             0       ****    0 ROOT    
