@<TRIPOS>MOLECULE
3R8
117   119    1
SMALL
USER_CHARGES


@<TRIPOS>ATOM
      1 CA         22.1526  -23.2248  -40.6420 C.3       0 UNK        -0.2013 
      2 C          20.7816  -23.6072  -41.1798 C.2       0 UNK         0.4866 
      3 O          19.9075  -22.7477  -41.3002 O.2       0 UNK        -0.5176 
      4 N          20.5868  -24.8925  -41.4942 N.am      1 UNK        -0.4884 
      5 CA         19.3683  -25.4466  -42.0897 C.3       1 UNK         0.0853 
      6 C6         19.2780  -26.9733  -41.8286 C.3       10 UNK        -0.0849 
      7 S7         17.5545  -27.5221  -41.6202 S.3       10 UNK        -0.2776 
      8 C8         17.7859  -29.3257  -41.4630 C.3       10 UNK         0.0316 
      9 C9         18.1197  -30.0540  -42.7658 C.ar      10 UNK        -0.0863 
     10 C10        18.8084  -31.2688  -42.6982 C.ar      10 UNK        -0.1009 
     11 C11        19.0754  -32.0059  -43.8552 C.ar      10 UNK        -0.0712 
     12 C12        18.6650  -31.5133  -45.0958 C.ar      10 UNK        -0.0894 
     13 C13        17.9977  -30.2875  -45.1863 C.ar      10 UNK        -0.0745 
     14 C14        17.7136  -29.5739  -44.0179 C.ar      10 UNK        -0.0972 
     15 C15        17.5614  -29.7287  -46.5364 C.3       10 UNK         0.0209 
     16 S16        18.8581  -29.7661  -47.8221 S.3       10 UNK        -0.2568 
     17 C17        20.3300  -29.0698  -46.9942 C.3       10 UNK        -0.0983 
     18 CA         20.4342  -27.5291  -47.1286 C.3       3 UNK         0.0876 
     19 N          19.4068  -26.8603  -46.3195 N.am      3 UNK        -0.4424 
     20 C          18.7678  -25.7338  -46.6582 C.2       2 UNK         0.4918 
     21 O          18.9355  -25.1466  -47.7268 O.2       2 UNK        -0.4875 
     22 CA         17.7974  -25.1376  -45.6166 C.3       2 UNK         0.0481 
     23 CB         16.3552  -25.5835  -45.9053 C.3       2 UNK        -0.1831 
     24 N          18.1236  -25.4312  -44.2125 N.am      2 UNK        -0.4498 
     25 C          19.2683  -25.1052  -43.5946 C.2       1 UNK         0.5027 
     26 O          20.2224  -24.5892  -44.1813 O.2       1 UNK        -0.4969 
     27 C          21.8626  -27.0423  -46.7778 C.2       3 UNK         0.5005 
     28 O          22.8263  -27.6149  -47.2885 O.2       3 UNK        -0.5279 
     29 N          21.9921  -26.0294  -45.9036 N.am      4 UNK        -0.4463 
     30 CA         23.2323  -25.4985  -45.3171 C.3       4 UNK         0.0283 
     31 CB         24.2055  -24.9734  -46.3944 C.3       4 UNK        -0.1875 
     32 C          23.9041  -26.4636  -44.3185 C.2       4 UNK         0.4949 
     33 O          25.0814  -26.2894  -44.0002 O.2       4 UNK        -0.5039 
     34 N          23.1431  -27.4463  -43.8176 N.am      5 UNK        -0.4663 
     35 CA         23.5438  -28.3525  -42.7420 C.3       5 UNK         0.0242 
     36 CB         22.6106  -29.5753  -42.7491 C.3       5 UNK        -0.1982 
     37 C          23.4779  -27.6320  -41.3862 C.2       5 UNK         0.5017 
     38 O          22.6014  -26.7875  -41.1921 O.2       5 UNK        -0.5012 
     39 N          24.3822  -27.9864  -40.4649 N.am      6 UNK        -0.4439 
     40 CA         24.4421  -27.4108  -39.1152 C.3       6 UNK         0.0297 
     41 CB         25.8085  -27.7316  -38.4875 C.3       6 UNK        -0.2006 
     42 C          23.3040  -27.8864  -38.1919 C.2       6 UNK         0.4892 
     43 O          22.9503  -27.1710  -37.2540 O.2       6 UNK        -0.5089 
     44 N          22.7647  -29.0777  -38.4702 N.am      7 UNK        -0.4243 
     45 CA         21.6716  -29.7340  -37.7600 C.3       7 UNK         0.0196 
     46 CB         22.1418  -30.2395  -36.3753 C.3       7 UNK        -0.2007 
     47 C          21.1367  -30.8382  -38.6853 C.2       7 UNK         0.5020 
     48 O          20.9954  -30.5968  -39.8851 O.2       7 UNK        -0.5147 
     49 N          20.8732  -32.0325  -38.1402 N.am      8 UNK        -0.4734 
     50 CA         20.5573  -33.2369  -38.9118 C.3       8 UNK         0.0238 
     51 CB         20.0292  -34.3223  -37.9596 C.3       8 UNK        -0.1912 
     52 C          21.7919  -33.7439  -39.6799 C.2       8 UNK         0.5038 
     53 O          22.9151  -33.6143  -39.1855 O.2       8 UNK        -0.5046 
     54 N          21.5553  -34.3261  -40.8599 N.am      9 UNK        -0.4200 
     55 CA         22.6005  -34.8214  -41.7730 C.3       9 UNK         0.0839 
     56 C          23.1874  -36.2118  -41.3912 C.2       9 UNK         0.5513 
     57 N          22.6518  -36.9153  -40.4006 N.am      9 UNK        -0.7519 
     58 O          24.1539  -36.6583  -42.0037 O.2       9 UNK        -0.4960 
     59 C59        22.1298  -34.7976  -43.2524 C.3       10 UNK        -0.0876 
     60 S60        21.5925  -33.1370  -43.7894 S.3       10 UNK        -0.2414 
     61 C61        19.7872  -33.3443  -43.7587 C.3       10 UNK         0.0169 
     62 H62        22.6212  -22.4916  -41.2979 H         1 UNK         0.0903 
     63 H63        22.0581  -22.7853  -39.6494 H         1 UNK         0.0903 
     64 H64        22.8159  -24.0868  -40.5690 H         1 UNK         0.0903 
     65 H65        21.3570  -25.5539  -41.3848 H         1 UNK         0.3096 
     66 H66        18.5274  -24.9530  -41.5964 H         1 UNK         0.1121 
     67 H67        19.7683  -27.5533  -42.6130 H         1 UNK         0.0849 
     68 H68        19.7993  -27.2331  -40.9048 H         1 UNK         0.0849 
     69 H69        18.5618  -29.5129  -40.7185 H         1 UNK         0.0865 
     70 H70        16.8671  -29.7550  -41.0617 H         1 UNK         0.0865 
     71 H71        19.1282  -31.6504  -41.7380 H         1 UNK         0.1346 
     72 H72        18.8743  -32.0788  -45.9935 H         1 UNK         0.1412 
     73 H73        17.1625  -28.6473  -44.0885 H         1 UNK         0.1426 
     74 H74        17.2155  -28.7004  -46.4349 H         1 UNK         0.0716 
     75 H75        16.7043  -30.3026  -46.8906 H         1 UNK         0.0716 
     76 H76        21.1822  -29.5586  -47.4700 H         1 UNK         0.0695 
     77 H77        20.3730  -29.3735  -45.9477 H         1 UNK         0.0695 
     78 H78        20.2857  -27.2750  -48.1806 H         1 UNK         0.0983 
     79 H79        19.1971  -27.2806  -45.4272 H         1 UNK         0.3095 
     80 H80        17.8403  -24.0527  -45.7323 H         1 UNK         0.0454 
     81 H81        16.2143  -26.6491  -45.7256 H         1 UNK         0.0851 
     82 H82        16.0846  -25.3890  -46.9442 H         1 UNK         0.0851 
     83 H83        15.6419  -25.0429  -45.2831 H         1 UNK         0.0851 
     84 H84        17.3984  -25.8724  -43.6626 H         1 UNK         0.2976 
     85 H85        21.1490  -25.5992  -45.5316 H         1 UNK         0.3116 
     86 H86        22.9242  -24.6379  -44.7216 H         1 UNK         0.0646 
     87 H87        24.6548  -25.7832  -46.9694 H         1 UNK         0.0847 
     88 H88        25.0229  -24.4126  -45.9396 H         1 UNK         0.0847 
     89 H89        23.7035  -24.3025  -47.0913 H         1 UNK         0.0847 
     90 H90        22.1802  -27.4912  -44.1102 H         1 UNK         0.3040 
     91 H91        24.5679  -28.6848  -42.9265 H         1 UNK         0.1015 
     92 H92        22.6184  -30.0784  -43.7164 H         1 UNK         0.0786 
     93 H93        21.5782  -29.3044  -42.5228 H         1 UNK         0.0786 
     94 H94        22.9187  -30.3096  -42.0037 H         1 UNK         0.0786 
     95 H95        25.0751  -28.6848  -40.6957 H         1 UNK         0.3172 
     96 H96        24.3583  -26.3252  -39.2040 H         1 UNK         0.0595 
     97 H97        25.9631  -28.8060  -38.3797 H         1 UNK         0.0839 
     98 H98        25.8934  -27.2902  -37.4933 H         1 UNK         0.0839 
     99 H99        26.6261  -27.3312  -39.0873 H         1 UNK         0.0839 
    100 H100       23.0691  -29.5602  -39.3050 H         1 UNK         0.2998 
    101 H101       20.8646  -29.0118  -37.6213 H         1 UNK         0.0822 
    102 H102       22.5304  -29.4247  -35.7644 H         1 UNK         0.0787 
    103 H103       21.3195  -30.6820  -35.8119 H         1 UNK         0.0787 
    104 H104       22.9315  -30.9870  -36.4648 H         1 UNK         0.0787 
    105 H105       21.0568  -32.1603  -37.1558 H         1 UNK         0.3055 
    106 H106       19.7728  -32.9858  -39.6294 H         1 UNK         0.1106 
    107 H107       19.7449  -35.2211  -38.5083 H         1 UNK         0.0828 
    108 H108       20.7793  -34.6141  -37.2231 H         1 UNK         0.0828 
    109 H109       19.1445  -33.9820  -37.4210 H         1 UNK         0.0828 
    110 H110       20.6050  -34.4275  -41.1803 H         1 UNK         0.2931 
    111 H111       23.4415  -34.1281  -41.7041 H         1 UNK         0.0412 
    112 H112       21.8646  -36.5569  -39.8850 H         1 UNK         0.3472 
    113 H113       23.0457  -37.8124  -40.1627 H         1 UNK         0.3472 
    114 H114       22.9440  -35.1021  -43.9128 H         1 UNK         0.0970 
    115 H115       21.3284  -35.5206  -43.4157 H         1 UNK         0.0970 
    116 H116       19.4866  -33.9961  -44.5805 H         1 UNK         0.0612 
    117 H117       19.4868  -33.8492  -42.8401 H         1 UNK         0.0612 
@<TRIPOS>BOND
     1    1    2 1    
     2    1   62 1    
     3    1   63 1    
     4    1   64 1    
     5    2    3 2    
     6    2    4 am   BACKBONE|DICT|INTERRES
     7    4    5 1    
     8    4   65 1    
     9    5    6 1    
    10    5   25 1    
    11    5   66 1    
    12    6    7 1    
    13    6   67 1    
    14    6   68 1    
    15    7    8 1    
    16    8    9 1    
    17    8   69 1    
    18    8   70 1    
    19    9   10 ar   
    20    9   14 ar   
    21   10   11 ar   
    22   10   71 1    
    23   11   12 ar   
    24   11   61 1    
    25   12   13 ar   
    26   12   72 1    
    27   13   14 ar   
    28   13   15 1    
    29   14   73 1    
    30   15   16 1    
    31   15   74 1    
    32   15   75 1    
    33   16   17 1    
    34   17   18 1    
    35   17   76 1    
    36   17   77 1    
    37   18   19 1    
    38   18   27 1    
    39   18   78 1    
    40   19   20 am   BACKBONE|DICT|INTERRES
    41   19   79 1    
    42   20   21 2    
    43   20   22 1    
    44   22   23 1    
    45   22   24 1    
    46   22   80 1    
    47   23   81 1    
    48   23   82 1    
    49   23   83 1    
    50   24   25 am   BACKBONE|DICT|INTERRES
    51   24   84 1    
    52   25   26 2    
    53   27   28 2    
    54   27   29 am   BACKBONE|DICT|INTERRES
    55   29   30 1    
    56   29   85 1    
    57   30   31 1    
    58   30   32 1    
    59   30   86 1    
    60   31   87 1    
    61   31   88 1    
    62   31   89 1    
    63   32   33 2    
    64   32   34 am   BACKBONE|DICT|INTERRES
    65   34   35 1    
    66   34   90 1    
    67   35   36 1    
    68   35   37 1    
    69   35   91 1    
    70   36   92 1    
    71   36   93 1    
    72   36   94 1    
    73   37   38 2    
    74   37   39 am   BACKBONE|DICT|INTERRES
    75   39   40 1    
    76   39   95 1    
    77   40   41 1    
    78   40   42 1    
    79   40   96 1    
    80   41   97 1    
    81   41   98 1    
    82   41   99 1    
    83   42   43 2    
    84   42   44 am   BACKBONE|DICT|INTERRES
    85   44   45 1    
    86   44  100 1    
    87   45   46 1    
    88   45   47 1    
    89   45  101 1    
    90   46  102 1    
    91   46  103 1    
    92   46  104 1    
    93   47   48 2    
    94   47   49 am   BACKBONE|DICT|INTERRES
    95   49   50 1    
    96   49  105 1    
    97   50   51 1    
    98   50   52 1    
    99   50  106 1    
   100   51  107 1    
   101   51  108 1    
   102   51  109 1    
   103   52   53 2    
   104   52   54 am   BACKBONE|DICT|INTERRES
   105   54   55 1    
   106   54  110 1    
   107   55   56 1    
   108   55   59 1    
   109   55  111 1    
   110   56   57 am   BACKBONE|DICT|INTERRES
   111   56   58 2    
   112   57  112 1    
   113   57  113 1    
   114   59   60 1    
   115   59  114 1    
   116   59  115 1    
   117   60   61 1    
   118   61  116 1    
   119   61  117 1    
@<TRIPOS>SUBSTRUCTURE
     1 UNK         1 GROUP             0       ****    0 ROOT    
