@<TRIPOS>MOLECULE
3R8
117   119    1
SMALL
USER_CHARGES


@<TRIPOS>ATOM
      1 CA         15.2170  -21.8142  -42.6802 C.3       0 UNK        -0.2013 
      2 C          15.8825  -22.7767  -43.6525 C.2       0 UNK         0.4866 
      3 O          16.6721  -22.3485  -44.4950 O.2       0 UNK        -0.5176 
      4 N          15.5636  -24.0723  -43.5494 N.am      1 UNK        -0.4884 
      5 CA         16.1655  -25.1505  -44.3391 C.3       1 UNK         0.0853 
      6 C6         15.2804  -26.4243  -44.3229 C.3       10 UNK        -0.0849 
      7 S7         14.9510  -27.0837  -42.6456 S.3       10 UNK        -0.2776 
      8 C8         15.1630  -28.8803  -42.8634 C.3       10 UNK         0.0316 
      9 C9         16.5394  -29.2662  -43.3914 C.ar      10 UNK        -0.0863 
     10 C10        17.6805  -29.1077  -42.5980 C.ar      10 UNK        -0.1009 
     11 C11        18.9363  -29.5000  -43.0735 C.ar      10 UNK        -0.0712 
     12 C12        19.0410  -30.0600  -44.3510 C.ar      10 UNK        -0.0894 
     13 C13        17.9086  -30.2201  -45.1557 C.ar      10 UNK        -0.0745 
     14 C14        16.6628  -29.8166  -44.6702 C.ar      10 UNK        -0.0972 
     15 C15        18.0096  -30.8656  -46.5316 C.3       10 UNK         0.0209 
     16 S16        18.5678  -29.6925  -47.8092 S.3       10 UNK        -0.2568 
     17 C17        20.3795  -29.7829  -47.6106 C.3       10 UNK        -0.0983 
     18 CA         21.0489  -28.4297  -47.2595 C.3       3 UNK         0.0876 
     19 N          20.3614  -27.7032  -46.1764 N.am      3 UNK        -0.4424 
     20 C          20.5986  -26.4210  -45.8689 C.2       2 UNK         0.4918 
     21 O          21.2982  -25.6748  -46.5558 O.2       2 UNK        -0.4875 
     22 CA         19.9435  -25.8933  -44.5875 C.3       2 UNK         0.0481 
     23 CB         20.6387  -24.6133  -44.0705 C.3       2 UNK        -0.1831 
     24 N          18.5216  -25.6600  -44.8320 N.am      2 UNK        -0.4498 
     25 C          17.6147  -25.4226  -43.8755 C.2       1 UNK         0.5027 
     26 O          17.8827  -25.4026  -42.6705 O.2       1 UNK        -0.4969 
     27 C          22.5423  -28.6681  -46.9307 C.2       3 UNK         0.5005 
     28 O          23.3629  -28.8060  -47.8390 O.2       3 UNK        -0.5279 
     29 N          22.8495  -28.7104  -45.6307 N.am      4 UNK        -0.4463 
     30 CA         24.1662  -28.7717  -45.0136 C.3       4 UNK         0.0283 
     31 CB         24.5888  -30.2422  -44.8227 C.3       4 UNK        -0.1875 
     32 C          24.0554  -28.0119  -43.6812 C.2       4 UNK         0.4949 
     33 O          23.0268  -27.3774  -43.4246 O.2       4 UNK        -0.5039 
     34 N          25.0992  -28.0874  -42.8478 N.am      5 UNK        -0.4663 
     35 CA         25.0971  -27.5299  -41.4925 C.3       5 UNK         0.0242 
     36 CB         26.5177  -27.6116  -40.9100 C.3       5 UNK        -0.1982 
     37 C          24.0904  -28.2454  -40.5716 C.2       5 UNK         0.5017 
     38 O          23.8204  -29.4363  -40.7580 O.2       5 UNK        -0.5012 
     39 N          23.5788  -27.5116  -39.5743 N.am      6 UNK        -0.4439 
     40 CA         22.6561  -28.0174  -38.5557 C.3       6 UNK         0.0297 
     41 CB         22.2382  -26.8697  -37.6226 C.3       6 UNK        -0.2006 
     42 C          23.2825  -29.1717  -37.7567 C.2       6 UNK         0.4892 
     43 O          24.4008  -29.0265  -37.2596 O.2       6 UNK        -0.5089 
     44 N          22.5585  -30.2964  -37.6968 N.am      7 UNK        -0.4243 
     45 CA         22.9409  -31.5912  -37.1163 C.3       7 UNK         0.0196 
     46 CB         23.3281  -31.4634  -35.6275 C.3       7 UNK        -0.2007 
     47 C          23.9968  -32.3783  -37.9209 C.2       7 UNK         0.5020 
     48 O          24.2439  -33.5362  -37.5811 O.2       7 UNK        -0.5147 
     49 N          24.5723  -31.7924  -38.9825 N.am      8 UNK        -0.4734 
     50 CA         25.3660  -32.5211  -39.9779 C.3       8 UNK         0.0238 
     51 CB         26.3875  -31.5845  -40.6427 C.3       8 UNK        -0.1912 
     52 C          24.4450  -33.1637  -41.0265 C.2       8 UNK         0.5038 
     53 O          24.7292  -34.2726  -41.4809 O.2       8 UNK        -0.5046 
     54 N          23.3473  -32.4715  -41.3633 N.am      9 UNK        -0.4200 
     55 CA         22.2172  -33.0100  -42.1291 C.3       9 UNK         0.0839 
     56 C          21.4567  -34.1430  -41.3820 C.2       9 UNK         0.5513 
     57 N          20.8165  -35.0429  -42.1166 N.am      9 UNK        -0.7519 
     58 O          21.4156  -34.1994  -40.1543 O.2       9 UNK        -0.4960 
     59 C59        21.2599  -31.8866  -42.6055 C.3       10 UNK        -0.0876 
     60 S60        20.5985  -30.8191  -41.2750 S.3       10 UNK        -0.2414 
     61 C61        20.1776  -29.3135  -42.2090 C.3       10 UNK         0.0169 
     62 H62        15.9716  -21.3048  -42.0815 H         1 UNK         0.0903 
     63 H63        14.6495  -21.0612  -43.2264 H         1 UNK         0.0903 
     64 H64        14.5350  -22.3265  -42.0017 H         1 UNK         0.0903 
     65 H65        14.9435  -24.3811  -42.8134 H         1 UNK         0.3096 
     66 H66        16.2119  -24.8030  -45.3740 H         1 UNK         0.1121 
     67 H67        14.3168  -26.2000  -44.7831 H         1 UNK         0.0849 
     68 H68        15.7256  -27.1921  -44.9558 H         1 UNK         0.0849 
     69 H69        15.0020  -29.3711  -41.9025 H         1 UNK         0.0865 
     70 H70        14.3763  -29.2483  -43.5241 H         1 UNK         0.0865 
     71 H71        17.5884  -28.6782  -41.6096 H         1 UNK         0.1346 
     72 H72        20.0052  -30.3843  -44.7121 H         1 UNK         0.1412 
     73 H73        15.7828  -29.9472  -45.2857 H         1 UNK         0.1426 
     74 H74        17.0351  -31.2544  -46.8312 H         1 UNK         0.0716 
     75 H75        18.6712  -31.7323  -46.4952 H         1 UNK         0.0716 
     76 H76        20.7886  -30.1578  -48.5508 H         1 UNK         0.0695 
     77 H77        20.6266  -30.5438  -46.8696 H         1 UNK         0.0695 
     78 H78        21.0127  -27.7991  -48.1508 H         1 UNK         0.0983 
     79 H79        19.7041  -28.2343  -45.6216 H         1 UNK         0.3095 
     80 H80        20.0458  -26.6684  -43.8251 H         1 UNK         0.0454 
     81 H81        21.7129  -24.7720  -43.9643 H         1 UNK         0.0851 
     82 H82        20.2665  -24.3164  -43.0905 H         1 UNK         0.0851 
     83 H83        20.4962  -23.7733  -44.7511 H         1 UNK         0.0851 
     84 H84        18.2364  -25.6698  -45.8025 H         1 UNK         0.2976 
     85 H85        22.1245  -28.4688  -44.9672 H         1 UNK         0.3116 
     86 H86        24.8900  -28.2536  -45.6458 H         1 UNK         0.0646 
     87 H87        23.9721  -30.7484  -44.0800 H         1 UNK         0.0847 
     88 H88        24.5151  -30.8014  -45.7556 H         1 UNK         0.0847 
     89 H89        25.6242  -30.3167  -44.4896 H         1 UNK         0.0847 
     90 H90        25.9017  -28.6387  -43.1130 H         1 UNK         0.3040 
     91 H91        24.8092  -26.4785  -41.5647 H         1 UNK         0.1015 
     92 H92        26.5548  -27.1891  -39.9049 H         1 UNK         0.0786 
     93 H93        27.2288  -27.0537  -41.5196 H         1 UNK         0.0786 
     94 H94        26.8705  -28.6404  -40.8411 H         1 UNK         0.0786 
     95 H95        23.8828  -26.5547  -39.4696 H         1 UNK         0.3172 
     96 H96        21.7653  -28.3808  -39.0731 H         1 UNK         0.0595 
     97 H97        23.0941  -26.4442  -37.0967 H         1 UNK         0.0839 
     98 H98        21.5339  -27.2196  -36.8665 H         1 UNK         0.0839 
     99 H99        21.7473  -26.0668  -38.1730 H         1 UNK         0.0839 
    100 H100       21.6655  -30.2976  -38.1718 H         1 UNK         0.2998 
    101 H101       22.0355  -32.1989  -37.1604 H         1 UNK         0.0822 
    102 H102       23.4361  -32.4472  -35.1691 H         1 UNK         0.0787 
    103 H103       22.5664  -30.9261  -35.0625 H         1 UNK         0.0787 
    104 H104       24.2771  -30.9437  -35.4943 H         1 UNK         0.0787 
    105 H105       24.3208  -30.8383  -39.2144 H         1 UNK         0.3055 
    106 H106       25.9205  -33.3211  -39.4816 H         1 UNK         0.1106 
    107 H107       26.9888  -31.0590  -39.9009 H         1 UNK         0.0828 
    108 H108       27.0729  -32.1514  -41.2739 H         1 UNK         0.0828 
    109 H109       25.9090  -30.8424  -41.2805 H         1 UNK         0.0828 
    110 H110       23.2106  -31.5520  -40.9624 H         1 UNK         0.2931 
    111 H111       22.6467  -33.4612  -43.0262 H         1 UNK         0.0412 
    112 H112       20.3071  -35.7792  -41.6529 H         1 UNK         0.3472 
    113 H113       20.8386  -35.0084  -43.1240 H         1 UNK         0.3472 
    114 H114       21.7921  -31.2560  -43.3173 H         1 UNK         0.0970 
    115 H115       20.4206  -32.3123  -43.1582 H         1 UNK         0.0970 
    116 H116       20.0205  -28.4972  -41.5023 H         1 UNK         0.0612 
    117 H117       21.0265  -29.0170  -42.8246 H         1 UNK         0.0612 
@<TRIPOS>BOND
     1    1    2 1    
     2    1   62 1    
     3    1   63 1    
     4    1   64 1    
     5    2    3 2    
     6    2    4 am   BACKBONE|DICT|INTERRES
     7    4    5 1    
     8    4   65 1    
     9    5    6 1    
    10    5   25 1    
    11    5   66 1    
    12    6    7 1    
    13    6   67 1    
    14    6   68 1    
    15    7    8 1    
    16    8    9 1    
    17    8   69 1    
    18    8   70 1    
    19    9   10 ar   
    20    9   14 ar   
    21   10   11 ar   
    22   10   71 1    
    23   11   12 ar   
    24   11   61 1    
    25   12   13 ar   
    26   12   72 1    
    27   13   14 ar   
    28   13   15 1    
    29   14   73 1    
    30   15   16 1    
    31   15   74 1    
    32   15   75 1    
    33   16   17 1    
    34   17   18 1    
    35   17   76 1    
    36   17   77 1    
    37   18   19 1    
    38   18   27 1    
    39   18   78 1    
    40   19   20 am   BACKBONE|DICT|INTERRES
    41   19   79 1    
    42   20   21 2    
    43   20   22 1    
    44   22   23 1    
    45   22   24 1    
    46   22   80 1    
    47   23   81 1    
    48   23   82 1    
    49   23   83 1    
    50   24   25 am   BACKBONE|DICT|INTERRES
    51   24   84 1    
    52   25   26 2    
    53   27   28 2    
    54   27   29 am   BACKBONE|DICT|INTERRES
    55   29   30 1    
    56   29   85 1    
    57   30   31 1    
    58   30   32 1    
    59   30   86 1    
    60   31   87 1    
    61   31   88 1    
    62   31   89 1    
    63   32   33 2    
    64   32   34 am   BACKBONE|DICT|INTERRES
    65   34   35 1    
    66   34   90 1    
    67   35   36 1    
    68   35   37 1    
    69   35   91 1    
    70   36   92 1    
    71   36   93 1    
    72   36   94 1    
    73   37   38 2    
    74   37   39 am   BACKBONE|DICT|INTERRES
    75   39   40 1    
    76   39   95 1    
    77   40   41 1    
    78   40   42 1    
    79   40   96 1    
    80   41   97 1    
    81   41   98 1    
    82   41   99 1    
    83   42   43 2    
    84   42   44 am   BACKBONE|DICT|INTERRES
    85   44   45 1    
    86   44  100 1    
    87   45   46 1    
    88   45   47 1    
    89   45  101 1    
    90   46  102 1    
    91   46  103 1    
    92   46  104 1    
    93   47   48 2    
    94   47   49 am   BACKBONE|DICT|INTERRES
    95   49   50 1    
    96   49  105 1    
    97   50   51 1    
    98   50   52 1    
    99   50  106 1    
   100   51  107 1    
   101   51  108 1    
   102   51  109 1    
   103   52   53 2    
   104   52   54 am   BACKBONE|DICT|INTERRES
   105   54   55 1    
   106   54  110 1    
   107   55   56 1    
   108   55   59 1    
   109   55  111 1    
   110   56   57 am   BACKBONE|DICT|INTERRES
   111   56   58 2    
   112   57  112 1    
   113   57  113 1    
   114   59   60 1    
   115   59  114 1    
   116   59  115 1    
   117   60   61 1    
   118   61  116 1    
   119   61  117 1    
@<TRIPOS>SUBSTRUCTURE
     1 UNK         1 GROUP             0       ****    0 ROOT    
