@<TRIPOS>MOLECULE
3R8
117   119    1
SMALL
USER_CHARGES


@<TRIPOS>ATOM
      1 CA         19.3751  -22.3212  -49.8101 C.3       0 UNK        -0.2013 
      2 C          19.6362  -22.7461  -48.3727 C.2       0 UNK         0.4866 
      3 O          19.8646  -21.8934  -47.5140 O.2       0 UNK        -0.5176 
      4 N          19.6123  -24.0579  -48.1044 N.am      1 UNK        -0.4884 
      5 CA         19.7716  -24.6384  -46.7674 C.3       1 UNK         0.0853 
      6 C6         20.1173  -26.1459  -46.8558 C.3       10 UNK        -0.0849 
      7 S7         21.0040  -26.7615  -45.3838 S.3       10 UNK        -0.2776 
      8 C8         21.1886  -28.5285  -45.7999 C.3       10 UNK         0.0316 
      9 C9         20.1111  -29.3684  -45.1316 C.ar      10 UNK        -0.0863 
     10 C10        20.3919  -30.0974  -43.9705 C.ar      10 UNK        -0.1009 
     11 C11        19.3907  -30.8413  -43.3383 C.ar      10 UNK        -0.0712 
     12 C12        18.0935  -30.8324  -43.8607 C.ar      10 UNK        -0.0894 
     13 C13        17.7962  -30.0775  -44.9995 C.ar      10 UNK        -0.0745 
     14 C14        18.8170  -29.3866  -45.6551 C.ar      10 UNK        -0.0972 
     15 C15        16.3586  -29.9024  -45.4601 C.3       10 UNK         0.0209 
     16 S16        15.7838  -28.1988  -45.1309 S.3       10 UNK        -0.2568 
     17 C17        15.8989  -28.1058  -43.3090 C.3       10 UNK        -0.0983 
     18 CA         17.2603  -27.5497  -42.7882 C.3       3 UNK         0.0876 
     19 N          17.6194  -26.2222  -43.3052 N.am      3 UNK        -0.4424 
     20 C          16.9608  -25.0714  -43.1107 C.2       2 UNK         0.4918 
     21 O          15.9137  -24.9772  -42.4704 O.2       2 UNK        -0.4875 
     22 CA         17.6016  -23.7933  -43.6865 C.3       2 UNK         0.0481 
     23 CB         18.1451  -22.9128  -42.5482 C.3       2 UNK        -0.1831 
     24 N          18.6859  -24.0544  -44.6412 N.am      2 UNK        -0.4498 
     25 C          18.5016  -24.3951  -45.9239 C.2       1 UNK         0.5027 
     26 O          17.3909  -24.5371  -46.4419 O.2       1 UNK        -0.4969 
     27 C          17.4060  -27.6722  -41.2529 C.2       3 UNK         0.5005 
     28 O          16.8268  -28.5818  -40.6559 O.2       3 UNK        -0.5279 
     29 N          18.1926  -26.7779  -40.6348 N.am      4 UNK        -0.4463 
     30 CA         18.5131  -26.8050  -39.2067 C.3       4 UNK         0.0283 
     31 CB         18.9857  -25.4130  -38.7531 C.3       4 UNK        -0.1875 
     32 C          19.5637  -27.8805  -38.8880 C.2       4 UNK         0.4949 
     33 O          19.3379  -28.7091  -38.0064 O.2       4 UNK        -0.5039 
     34 N          20.6795  -27.8494  -39.6259 N.am      5 UNK        -0.4663 
     35 CA         21.8185  -28.7600  -39.5372 C.3       5 UNK         0.0242 
     36 CB         22.5512  -28.5953  -38.1890 C.3       5 UNK        -0.1982 
     37 C          22.7720  -28.4435  -40.6962 C.2       5 UNK         0.5017 
     38 O          22.7406  -27.3231  -41.2125 O.2       5 UNK        -0.5012 
     39 N          23.6225  -29.4124  -41.0513 N.am      6 UNK        -0.4439 
     40 CA         24.7099  -29.2786  -42.0201 C.3       6 UNK         0.0297 
     41 CB         24.1858  -29.0863  -43.4580 C.3       6 UNK        -0.2006 
     42 C          25.5706  -30.5389  -41.9187 C.2       6 UNK         0.4892 
     43 O          25.1567  -31.5868  -42.4192 O.2       6 UNK        -0.5089 
     44 N          26.7237  -30.4286  -41.2433 N.am      7 UNK        -0.4243 
     45 CA         27.6916  -31.5038  -40.9863 C.3       7 UNK         0.0196 
     46 CB         28.4596  -31.8535  -42.2824 C.3       7 UNK        -0.2007 
     47 C          27.0193  -32.7122  -40.3046 C.2       7 UNK         0.5020 
     48 O          26.5096  -32.5625  -39.1934 O.2       7 UNK        -0.5147 
     49 N          26.9731  -33.8620  -40.9912 N.am      8 UNK        -0.4734 
     50 CA         26.2950  -35.0857  -40.5495 C.3       8 UNK         0.0238 
     51 CB         26.6227  -36.2247  -41.5287 C.3       8 UNK        -0.1912 
     52 C          24.7692  -34.9410  -40.3836 C.2       8 UNK         0.5038 
     53 O          24.1842  -35.6995  -39.6091 O.2       8 UNK        -0.5046 
     54 N          24.1574  -33.9770  -41.0870 N.am      9 UNK        -0.4200 
     55 CA         22.7515  -33.5851  -40.9106 C.3       9 UNK         0.0839 
     56 C          22.5149  -32.6758  -39.6674 C.2       9 UNK         0.5513 
     57 N          23.5430  -32.1264  -39.0275 N.am      9 UNK        -0.7519 
     58 O          21.3759  -32.4659  -39.2644 O.2       9 UNK        -0.4960 
     59 C59        22.1747  -32.9644  -42.2152 C.3       10 UNK        -0.0876 
     60 S60        20.3815  -33.2563  -42.4056 S.3       10 UNK        -0.2414 
     61 C61        19.6887  -31.6089  -42.0593 C.3       10 UNK         0.0169 
     62 H62        18.4981  -21.6761  -49.8568 H         1 UNK         0.0903 
     63 H63        20.2282  -21.7652  -50.1980 H         1 UNK         0.0903 
     64 H64        19.2022  -23.1760  -50.4638 H         1 UNK         0.0903 
     65 H65        19.3825  -24.7090  -48.8420 H         1 UNK         0.3096 
     66 H66        20.6087  -24.1193  -46.2939 H         1 UNK         0.1121 
     67 H67        20.7744  -26.3234  -47.7091 H         1 UNK         0.0849 
     68 H68        19.2235  -26.7427  -47.0403 H         1 UNK         0.0849 
     69 H69        21.1564  -28.6716  -46.8811 H         1 UNK         0.0865 
     70 H70        22.1771  -28.8639  -45.4880 H         1 UNK         0.0865 
     71 H71        21.3844  -30.0764  -43.5470 H         1 UNK         0.1346 
     72 H72        17.3055  -31.3679  -43.3488 H         1 UNK         0.1412 
     73 H73        18.5806  -28.8084  -46.5362 H         1 UNK         0.1426 
     74 H74        15.6957  -30.6140  -44.9655 H         1 UNK         0.0716 
     75 H75        16.2907  -30.1044  -46.5300 H         1 UNK         0.0716 
     76 H76        15.7117  -29.1061  -42.9147 H         1 UNK         0.0695 
     77 H77        15.0750  -27.4885  -42.9486 H         1 UNK         0.0695 
     78 H78        18.0494  -28.1960  -43.1625 H         1 UNK         0.0983 
     79 H79        18.4619  -26.1899  -43.8613 H         1 UNK         0.3095 
     80 H80        16.8131  -23.2355  -44.1962 H         1 UNK         0.0454 
     81 H81        18.9448  -23.4078  -41.9962 H         1 UNK         0.0851 
     82 H82        17.3590  -22.6688  -41.8320 H         1 UNK         0.0851 
     83 H83        18.5343  -21.9684  -42.9289 H         1 UNK         0.0851 
     84 H84        19.6297  -23.9594  -44.2923 H         1 UNK         0.2976 
     85 H85        18.6326  -26.0627  -41.1936 H         1 UNK         0.3116 
     86 H86        17.6049  -27.0460  -38.6494 H         1 UNK         0.0646 
     87 H87        19.8798  -25.0875  -39.2861 H         1 UNK         0.0847 
     88 H88        19.2242  -25.4125  -37.6886 H         1 UNK         0.0847 
     89 H89        18.2110  -24.6621  -38.9096 H         1 UNK         0.0847 
     90 H90        20.7925  -27.1379  -40.3380 H         1 UNK         0.3040 
     91 H91        21.4540  -29.7828  -39.6409 H         1 UNK         0.1015 
     92 H92        22.8530  -27.5606  -38.0217 H         1 UNK         0.0786 
     93 H93        23.4535  -29.2065  -38.1505 H         1 UNK         0.0786 
     94 H94        21.9264  -28.9009  -37.3501 H         1 UNK         0.0786 
     95 H95        23.6054  -30.2903  -40.5468 H         1 UNK         0.3172 
     96 H96        25.3118  -28.4087  -41.7487 H         1 UNK         0.0595 
     97 H97        25.0156  -28.9617  -44.1545 H         1 UNK         0.0839 
     98 H98        23.5575  -28.2009  -43.5510 H         1 UNK         0.0839 
     99 H99        23.6129  -29.9483  -43.7978 H         1 UNK         0.0839 
    100 H100       26.9480  -29.5352  -40.8269 H         1 UNK         0.2998 
    101 H101       28.4138  -31.1134  -40.2674 H         1 UNK         0.0822 
    102 H102       29.2172  -32.6172  -42.1005 H         1 UNK         0.0787 
    103 H103       27.7997  -32.2158  -43.0718 H         1 UNK         0.0787 
    104 H104       28.9809  -30.9788  -42.6716 H         1 UNK         0.0787 
    105 H105       27.3900  -33.8805  -41.9111 H         1 UNK         0.3055 
    106 H106       26.6970  -35.3494  -39.5686 H         1 UNK         0.1106 
    107 H107       26.1565  -37.1588  -41.2114 H         1 UNK         0.0828 
    108 H108       26.2637  -36.0077  -42.5355 H         1 UNK         0.0828 
    109 H109       27.6964  -36.4051  -41.5848 H         1 UNK         0.0828 
    110 H110       24.7158  -33.3591  -41.6684 H         1 UNK         0.2931 
    111 H111       22.1954  -34.5045  -40.7167 H         1 UNK         0.0412 
    112 H112       23.3571  -31.5944  -38.1924 H         1 UNK         0.3472 
    113 H113       24.5011  -32.3628  -39.2621 H         1 UNK         0.3472 
    114 H114       22.6489  -33.4231  -43.0843 H         1 UNK         0.0970 
    115 H115       22.4083  -31.9017  -42.2915 H         1 UNK         0.0970 
    116 H116       18.7737  -31.7351  -41.4785 H         1 UNK         0.0612 
    117 H117       20.3638  -31.0339  -41.4254 H         1 UNK         0.0612 
@<TRIPOS>BOND
     1    1    2 1    
     2    1   62 1    
     3    1   63 1    
     4    1   64 1    
     5    2    3 2    
     6    2    4 am   BACKBONE|DICT|INTERRES
     7    4    5 1    
     8    4   65 1    
     9    5    6 1    
    10    5   25 1    
    11    5   66 1    
    12    6    7 1    
    13    6   67 1    
    14    6   68 1    
    15    7    8 1    
    16    8    9 1    
    17    8   69 1    
    18    8   70 1    
    19    9   10 ar   
    20    9   14 ar   
    21   10   11 ar   
    22   10   71 1    
    23   11   12 ar   
    24   11   61 1    
    25   12   13 ar   
    26   12   72 1    
    27   13   14 ar   
    28   13   15 1    
    29   14   73 1    
    30   15   16 1    
    31   15   74 1    
    32   15   75 1    
    33   16   17 1    
    34   17   18 1    
    35   17   76 1    
    36   17   77 1    
    37   18   19 1    
    38   18   27 1    
    39   18   78 1    
    40   19   20 am   BACKBONE|DICT|INTERRES
    41   19   79 1    
    42   20   21 2    
    43   20   22 1    
    44   22   23 1    
    45   22   24 1    
    46   22   80 1    
    47   23   81 1    
    48   23   82 1    
    49   23   83 1    
    50   24   25 am   BACKBONE|DICT|INTERRES
    51   24   84 1    
    52   25   26 2    
    53   27   28 2    
    54   27   29 am   BACKBONE|DICT|INTERRES
    55   29   30 1    
    56   29   85 1    
    57   30   31 1    
    58   30   32 1    
    59   30   86 1    
    60   31   87 1    
    61   31   88 1    
    62   31   89 1    
    63   32   33 2    
    64   32   34 am   BACKBONE|DICT|INTERRES
    65   34   35 1    
    66   34   90 1    
    67   35   36 1    
    68   35   37 1    
    69   35   91 1    
    70   36   92 1    
    71   36   93 1    
    72   36   94 1    
    73   37   38 2    
    74   37   39 am   BACKBONE|DICT|INTERRES
    75   39   40 1    
    76   39   95 1    
    77   40   41 1    
    78   40   42 1    
    79   40   96 1    
    80   41   97 1    
    81   41   98 1    
    82   41   99 1    
    83   42   43 2    
    84   42   44 am   BACKBONE|DICT|INTERRES
    85   44   45 1    
    86   44  100 1    
    87   45   46 1    
    88   45   47 1    
    89   45  101 1    
    90   46  102 1    
    91   46  103 1    
    92   46  104 1    
    93   47   48 2    
    94   47   49 am   BACKBONE|DICT|INTERRES
    95   49   50 1    
    96   49  105 1    
    97   50   51 1    
    98   50   52 1    
    99   50  106 1    
   100   51  107 1    
   101   51  108 1    
   102   51  109 1    
   103   52   53 2    
   104   52   54 am   BACKBONE|DICT|INTERRES
   105   54   55 1    
   106   54  110 1    
   107   55   56 1    
   108   55   59 1    
   109   55  111 1    
   110   56   57 am   BACKBONE|DICT|INTERRES
   111   56   58 2    
   112   57  112 1    
   113   57  113 1    
   114   59   60 1    
   115   59  114 1    
   116   59  115 1    
   117   60   61 1    
   118   61  116 1    
   119   61  117 1    
@<TRIPOS>SUBSTRUCTURE
     1 UNK         1 GROUP             0       ****    0 ROOT    
