@<TRIPOS>MOLECULE
3R8
117   119    1
SMALL
USER_CHARGES


@<TRIPOS>ATOM
      1 CA         14.8557  -23.1653  -41.5615 C.3       0 UNK        -0.2013 
      2 C          15.3429  -23.5787  -42.9423 C.2       0 UNK         0.4866 
      3 O          15.2486  -22.7924  -43.8856 O.2       0 UNK        -0.5176 
      4 N          15.8538  -24.8093  -43.0706 N.am      1 UNK        -0.4884 
      5 CA         16.4155  -25.3565  -44.3099 C.3       1 UNK         0.0853 
      6 C6         16.6078  -26.8867  -44.2195 C.3       10 UNK        -0.0849 
      7 S7         15.0227  -27.7943  -44.2321 S.3       10 UNK        -0.2776 
      8 C8         15.3893  -29.2807  -43.2289 C.3       10 UNK         0.0316 
      9 C9         16.7903  -29.8407  -43.4570 C.ar      10 UNK        -0.0863 
     10 C10        17.6434  -30.0425  -42.3678 C.ar      10 UNK        -0.1009 
     11 C11        18.9550  -30.4828  -42.5620 C.ar      10 UNK        -0.0712 
     12 C12        19.4141  -30.7227  -43.8606 C.ar      10 UNK        -0.0894 
     13 C13        18.5754  -30.5099  -44.9600 C.ar      10 UNK        -0.0745 
     14 C14        17.2554  -30.1035  -44.7500 C.ar      10 UNK        -0.0972 
     15 C15        19.1116  -30.6505  -46.3785 C.3       10 UNK         0.0209 
     16 S16        19.5196  -29.0247  -47.1077 S.3       10 UNK        -0.2568 
     17 C17        20.8425  -28.4713  -45.9830 C.3       10 UNK        -0.0983 
     18 CA         21.3729  -27.0398  -46.2480 C.3       3 UNK         0.0876 
     19 N          20.2979  -26.0394  -46.2628 N.am      3 UNK        -0.4424 
     20 C          20.4514  -24.7295  -46.5091 C.2       2 UNK         0.4918 
     21 O          21.5392  -24.2007  -46.7395 O.2       2 UNK        -0.4875 
     22 CA         19.1851  -23.8506  -46.5304 C.3       2 UNK         0.0481 
     23 CB         18.8780  -23.3947  -47.9668 C.3       2 UNK        -0.1831 
     24 N          17.9896  -24.4920  -45.9730 N.am      2 UNK        -0.4498 
     25 C          17.7546  -24.6789  -44.6668 C.2       1 UNK         0.5027 
     26 O          18.5555  -24.3847  -43.7757 O.2       1 UNK        -0.4969 
     27 C          22.4630  -26.7376  -45.2001 C.2       3 UNK         0.5005 
     28 O          23.6497  -26.8988  -45.4922 O.2       3 UNK        -0.5279 
     29 N          22.0237  -26.3661  -43.9859 N.am      4 UNK        -0.4463 
     30 CA         22.7810  -26.2760  -42.7304 C.3       4 UNK         0.0283 
     31 CB         23.8990  -25.2156  -42.7965 C.3       4 UNK        -0.1875 
     32 C          23.3024  -27.6491  -42.2679 C.2       4 UNK         0.4949 
     33 O          22.8372  -28.1590  -41.2482 O.2       4 UNK        -0.5039 
     34 N          24.2399  -28.2230  -43.0387 N.am      5 UNK        -0.4663 
     35 CA         24.8038  -29.5777  -42.9336 C.3       5 UNK         0.0242 
     36 CB         23.7929  -30.5935  -43.5000 C.3       5 UNK        -0.1982 
     37 C          25.2967  -29.9518  -41.5213 C.2       5 UNK         0.5017 
     38 O          25.0818  -31.0795  -41.0703 O.2       5 UNK        -0.5012 
     39 N          25.8892  -28.9664  -40.8272 N.am      6 UNK        -0.4439 
     40 CA         26.3786  -29.0072  -39.4403 C.3       6 UNK         0.0297 
     41 CB         27.6287  -29.9081  -39.3497 C.3       6 UNK        -0.2006 
     42 C          25.3108  -29.3992  -38.3928 C.2       6 UNK         0.4892 
     43 O          25.6749  -29.8406  -37.3022 O.2       6 UNK        -0.5089 
     44 N          24.0217  -29.2743  -38.7526 N.am      7 UNK        -0.4243 
     45 CA         22.8385  -29.7873  -38.0482 C.3       7 UNK         0.0196 
     46 CB         22.6577  -29.0956  -36.6804 C.3       7 UNK        -0.2007 
     47 C          22.7848  -31.3290  -37.9418 C.2       7 UNK         0.5020 
     48 O          21.9522  -31.8501  -37.1987 O.2       7 UNK        -0.5147 
     49 N          23.6466  -32.0379  -38.6857 N.am      8 UNK        -0.4734 
     50 CA         23.6708  -33.4995  -38.7757 C.3       8 UNK         0.0238 
     51 CB         25.1121  -33.9665  -39.0369 C.3       8 UNK        -0.1912 
     52 C          22.7293  -34.0092  -39.8770 C.2       8 UNK         0.5038 
     53 O          22.1912  -35.1092  -39.7468 O.2       8 UNK        -0.5046 
     54 N          22.5419  -33.1930  -40.9239 N.am      9 UNK        -0.4200 
     55 CA         21.6166  -33.4124  -42.0490 C.3       9 UNK         0.0839 
     56 C          22.0177  -34.5703  -43.0112 C.2       9 UNK         0.5513 
     57 N          23.2581  -35.0430  -42.9917 N.am      9 UNK        -0.7519 
     58 O          21.2051  -35.0269  -43.8111 O.2       9 UNK        -0.4960 
     59 C59        20.1186  -33.4754  -41.6216 C.3       10 UNK        -0.0876 
     60 S60        19.5885  -32.1760  -40.4472 S.3       10 UNK        -0.2414 
     61 C61        19.8869  -30.6359  -41.3690 C.3       10 UNK         0.0169 
     62 H62        15.4068  -22.2911  -41.2158 H         1 UNK         0.0903 
     63 H63        13.7973  -22.9087  -41.5982 H         1 UNK         0.0903 
     64 H64        14.9863  -23.9604  -40.8275 H         1 UNK         0.0903 
     65 H65        15.9162  -25.4095  -42.2609 H         1 UNK         0.3096 
     66 H66        15.7082  -25.1428  -45.1151 H         1 UNK         0.1121 
     67 H67        17.1792  -27.1410  -43.3245 H         1 UNK         0.0849 
     68 H68        17.1888  -27.2575  -45.0666 H         1 UNK         0.0849 
     69 H69        15.2462  -29.0247  -42.1780 H         1 UNK         0.0865 
     70 H70        14.6546  -30.0539  -43.4572 H         1 UNK         0.0865 
     71 H71        17.2974  -29.8356  -41.3640 H         1 UNK         0.1346 
     72 H72        20.4378  -31.0297  -44.0214 H         1 UNK         0.1412 
     73 H73        16.6087  -29.9271  -45.5990 H         1 UNK         0.1426 
     74 H74        18.3668  -31.1442  -47.0044 H         1 UNK         0.0716 
     75 H75        19.9971  -31.2880  -46.3951 H         1 UNK         0.0716 
     76 H76        21.6559  -29.1975  -46.0451 H         1 UNK         0.0695 
     77 H77        20.4581  -28.5264  -44.9642 H         1 UNK         0.0695 
     78 H78        21.8476  -27.0218  -47.2314 H         1 UNK         0.0983 
     79 H79        19.3635  -26.3946  -46.1309 H         1 UNK         0.3095 
     80 H80        19.4018  -22.9611  -45.9350 H         1 UNK         0.0454 
     81 H81        19.7303  -22.8713  -48.4026 H         1 UNK         0.0851 
     82 H82        18.0330  -22.7066  -47.9939 H         1 UNK         0.0851 
     83 H83        18.6474  -24.2382  -48.6187 H         1 UNK         0.0851 
     84 H84        17.2858  -24.7764  -46.6403 H         1 UNK         0.2976 
     85 H85        21.0242  -26.2540  -43.8822 H         1 UNK         0.3116 
     86 H86        22.0661  -25.9426  -41.9762 H         1 UNK         0.0646 
     87 H87        24.6647  -25.4567  -43.5337 H         1 UNK         0.0847 
     88 H88        23.4948  -24.2354  -43.0491 H         1 UNK         0.0847 
     89 H89        24.3988  -25.1195  -41.8318 H         1 UNK         0.0847 
     90 H90        24.4824  -27.7151  -43.8855 H         1 UNK         0.3040 
     91 H91        25.6885  -29.6012  -43.5719 H         1 UNK         0.1015 
     92 H92        24.1872  -31.6105  -43.4766 H         1 UNK         0.0786 
     93 H93        23.5467  -30.3679  -44.5375 H         1 UNK         0.0786 
     94 H94        22.8672  -30.5794  -42.9291 H         1 UNK         0.0786 
     95 H95        25.9750  -28.0724  -41.2915 H         1 UNK         0.3172 
     96 H96        26.6824  -27.9889  -39.1938 H         1 UNK         0.0595 
     97 H97        27.3832  -30.9567  -39.5221 H         1 UNK         0.0839 
     98 H98        28.0932  -29.8411  -38.3651 H         1 UNK         0.0839 
     99 H99        28.3834  -29.6160  -40.0799 H         1 UNK         0.0839 
    100 H100       23.8239  -28.8893  -39.6726 H         1 UNK         0.2998 
    101 H101       21.9867  -29.5084  -38.6708 H         1 UNK         0.0822 
    102 H102       21.6948  -29.3521  -36.2372 H         1 UNK         0.0787 
    103 H103       22.6886  -28.0104  -36.7774 H         1 UNK         0.0787 
    104 H104       23.4289  -29.3924  -35.9693 H         1 UNK         0.0787 
    105 H105       24.2846  -31.5391  -39.2987 H         1 UNK         0.3055 
    106 H106       23.3378  -33.9288  -37.8278 H         1 UNK         0.1106 
    107 H107       25.7822  -33.6441  -38.2398 H         1 UNK         0.0828 
    108 H108       25.1664  -35.0549  -39.0857 H         1 UNK         0.0828 
    109 H109       25.5020  -33.5772  -39.9782 H         1 UNK         0.0828 
    110 H110       23.0750  -32.3350  -40.9503 H         1 UNK         0.2931 
    111 H111       21.7224  -32.5270  -42.6704 H         1 UNK         0.0412 
    112 H112       23.9368  -34.6710  -42.3471 H         1 UNK         0.3472 
    113 H113       23.5143  -35.7850  -43.6241 H         1 UNK         0.3472 
    114 H114       19.4717  -33.4216  -42.4991 H         1 UNK         0.0970 
    115 H115       19.9060  -34.4400  -41.1577 H         1 UNK         0.0970 
    116 H116       19.7370  -29.7957  -40.6893 H         1 UNK         0.0612 
    117 H117       20.9309  -30.5792  -41.6735 H         1 UNK         0.0612 
@<TRIPOS>BOND
     1    1    2 1    
     2    1   62 1    
     3    1   63 1    
     4    1   64 1    
     5    2    3 2    
     6    2    4 am   BACKBONE|DICT|INTERRES
     7    4    5 1    
     8    4   65 1    
     9    5    6 1    
    10    5   25 1    
    11    5   66 1    
    12    6    7 1    
    13    6   67 1    
    14    6   68 1    
    15    7    8 1    
    16    8    9 1    
    17    8   69 1    
    18    8   70 1    
    19    9   10 ar   
    20    9   14 ar   
    21   10   11 ar   
    22   10   71 1    
    23   11   12 ar   
    24   11   61 1    
    25   12   13 ar   
    26   12   72 1    
    27   13   14 ar   
    28   13   15 1    
    29   14   73 1    
    30   15   16 1    
    31   15   74 1    
    32   15   75 1    
    33   16   17 1    
    34   17   18 1    
    35   17   76 1    
    36   17   77 1    
    37   18   19 1    
    38   18   27 1    
    39   18   78 1    
    40   19   20 am   BACKBONE|DICT|INTERRES
    41   19   79 1    
    42   20   21 2    
    43   20   22 1    
    44   22   23 1    
    45   22   24 1    
    46   22   80 1    
    47   23   81 1    
    48   23   82 1    
    49   23   83 1    
    50   24   25 am   BACKBONE|DICT|INTERRES
    51   24   84 1    
    52   25   26 2    
    53   27   28 2    
    54   27   29 am   BACKBONE|DICT|INTERRES
    55   29   30 1    
    56   29   85 1    
    57   30   31 1    
    58   30   32 1    
    59   30   86 1    
    60   31   87 1    
    61   31   88 1    
    62   31   89 1    
    63   32   33 2    
    64   32   34 am   BACKBONE|DICT|INTERRES
    65   34   35 1    
    66   34   90 1    
    67   35   36 1    
    68   35   37 1    
    69   35   91 1    
    70   36   92 1    
    71   36   93 1    
    72   36   94 1    
    73   37   38 2    
    74   37   39 am   BACKBONE|DICT|INTERRES
    75   39   40 1    
    76   39   95 1    
    77   40   41 1    
    78   40   42 1    
    79   40   96 1    
    80   41   97 1    
    81   41   98 1    
    82   41   99 1    
    83   42   43 2    
    84   42   44 am   BACKBONE|DICT|INTERRES
    85   44   45 1    
    86   44  100 1    
    87   45   46 1    
    88   45   47 1    
    89   45  101 1    
    90   46  102 1    
    91   46  103 1    
    92   46  104 1    
    93   47   48 2    
    94   47   49 am   BACKBONE|DICT|INTERRES
    95   49   50 1    
    96   49  105 1    
    97   50   51 1    
    98   50   52 1    
    99   50  106 1    
   100   51  107 1    
   101   51  108 1    
   102   51  109 1    
   103   52   53 2    
   104   52   54 am   BACKBONE|DICT|INTERRES
   105   54   55 1    
   106   54  110 1    
   107   55   56 1    
   108   55   59 1    
   109   55  111 1    
   110   56   57 am   BACKBONE|DICT|INTERRES
   111   56   58 2    
   112   57  112 1    
   113   57  113 1    
   114   59   60 1    
   115   59  114 1    
   116   59  115 1    
   117   60   61 1    
   118   61  116 1    
   119   61  117 1    
@<TRIPOS>SUBSTRUCTURE
     1 UNK         1 GROUP             0       ****    0 ROOT    
