@<TRIPOS>MOLECULE
3R8
117   119    1
SMALL
USER_CHARGES


@<TRIPOS>ATOM
      1 CA         15.8948  -25.0430  -40.1083 C.3       0 UNK        -0.2013 
      2 C          16.1164  -24.7813  -41.5907 C.2       0 UNK         0.4866 
      3 O          15.7942  -23.6962  -42.0763 O.2       0 UNK        -0.5176 
      4 N          16.6544  -25.7704  -42.3142 N.am      1 UNK        -0.4884 
      5 CA         16.9883  -25.6815  -43.7403 C.3       1 UNK         0.0853 
      6 C6         17.2673  -27.0748  -44.3517 C.3       10 UNK        -0.0849 
      7 S7         15.8683  -28.2353  -44.1748 S.3       10 UNK        -0.2776 
      8 C8         16.3372  -29.5527  -45.3479 C.3       10 UNK         0.0316 
      9 C9         17.7700  -30.0179  -45.1299 C.ar      10 UNK        -0.0863 
     10 C10        18.1045  -30.7654  -43.9990 C.ar      10 UNK        -0.1009 
     11 C11        19.4315  -31.1309  -43.7560 C.ar      10 UNK        -0.0712 
     12 C12        20.4309  -30.7448  -44.6567 C.ar      10 UNK        -0.0894 
     13 C13        20.1051  -30.0004  -45.7972 C.ar      10 UNK        -0.0745 
     14 C14        18.7712  -29.6554  -46.0340 C.ar      10 UNK        -0.0972 
     15 C15        21.1836  -29.5632  -46.7808 C.3       10 UNK         0.0209 
     16 S16        21.2537  -27.7490  -46.9735 S.3       10 UNK        -0.2568 
     17 C17        22.0108  -27.2635  -45.3937 C.3       10 UNK        -0.0983 
     18 CA         22.3398  -25.7478  -45.3277 C.3       3 UNK         0.0876 
     19 N          21.1415  -24.9323  -45.1502 N.am      3 UNK        -0.4424 
     20 C          20.6148  -24.1005  -46.0525 C.2       2 UNK         0.4918 
     21 O          21.0547  -23.9639  -47.1955 O.2       2 UNK        -0.4875 
     22 CA         19.3844  -23.2874  -45.5947 C.3       2 UNK         0.0481 
     23 CB         18.8645  -22.3348  -46.6878 C.3       2 UNK        -0.1831 
     24 N          18.2822  -24.1484  -45.1537 N.am      2 UNK        -0.4498 
     25 C          18.2087  -24.7656  -43.9669 C.2       1 UNK         0.5027 
     26 O          19.0832  -24.6759  -43.1000 O.2       1 UNK        -0.4969 
     27 C          23.2570  -25.4817  -44.1271 C.2       3 UNK         0.5005 
     28 O          22.7689  -25.3800  -42.9995 O.2       3 UNK        -0.5279 
     29 N          24.5762  -25.4720  -44.3643 N.am      4 UNK        -0.4463 
     30 CA         25.5895  -25.5515  -43.3032 C.3       4 UNK         0.0283 
     31 CB         26.9714  -25.2061  -43.8805 C.3       4 UNK        -0.1875 
     32 C          25.6117  -26.9431  -42.6404 C.2       4 UNK         0.4949 
     33 O          25.9266  -27.0567  -41.4569 O.2       4 UNK        -0.5039 
     34 N          25.2305  -27.9682  -43.4147 N.am      5 UNK        -0.4663 
     35 CA         25.0813  -29.3615  -42.9975 C.3       5 UNK         0.0242 
     36 CB         25.3420  -30.2667  -44.2155 C.3       5 UNK        -0.1982 
     37 C          23.7111  -29.6712  -42.3622 C.2       5 UNK         0.5017 
     38 O          23.3886  -30.8478  -42.2109 O.2       5 UNK        -0.5012 
     39 N          22.9225  -28.6512  -41.9846 N.am      6 UNK        -0.4439 
     40 CA         21.5972  -28.8025  -41.3626 C.3       6 UNK         0.0297 
     41 CB         20.9534  -27.4224  -41.1592 C.3       6 UNK        -0.2006 
     42 C          21.5906  -29.6047  -40.0439 C.2       6 UNK         0.4892 
     43 O          20.5694  -30.2026  -39.7059 O.2       6 UNK        -0.5089 
     44 N          22.7296  -29.6333  -39.3392 N.am      7 UNK        -0.4243 
     45 CA         22.9440  -30.4428  -38.1387 C.3       7 UNK         0.0196 
     46 CB         24.1620  -29.8922  -37.3792 C.3       7 UNK        -0.2007 
     47 C          23.1315  -31.9452  -38.4275 C.2       7 UNK         0.5020 
     48 O          22.9331  -32.7516  -37.5181 O.2       7 UNK        -0.5147 
     49 N          23.5119  -32.3144  -39.6618 N.am      8 UNK        -0.4734 
     50 CA         23.8311  -33.6962  -40.0493 C.3       8 UNK         0.0238 
     51 CB         24.5568  -33.7028  -41.4050 C.3       8 UNK        -0.1912 
     52 C          22.6108  -34.6312  -40.0915 C.2       8 UNK         0.5038 
     53 O          22.7867  -35.8473  -40.0043 O.2       8 UNK        -0.5046 
     54 N          21.4075  -34.0561  -40.2074 N.am      9 UNK        -0.4200 
     55 CA         20.1278  -34.7735  -40.1159 C.3       9 UNK         0.0839 
     56 C          19.7443  -35.1990  -38.6665 C.2       9 UNK         0.5513 
     57 N          20.4414  -34.7557  -37.6252 N.am      9 UNK        -0.7519 
     58 O          18.7936  -35.9551  -38.4845 O.2       9 UNK        -0.4960 
     59 C59        18.9729  -33.9823  -40.7825 C.3       10 UNK        -0.0876 
     60 S60        19.2555  -33.6271  -42.5536 S.3       10 UNK        -0.2414 
     61 C61        19.7749  -31.8858  -42.4820 C.3       10 UNK         0.0169 
     62 H62        16.2122  -26.0448  -39.8189 H         1 UNK         0.0903 
     63 H63        16.4571  -24.3242  -39.5129 H         1 UNK         0.0903 
     64 H64        14.8385  -24.9379  -39.8622 H         1 UNK         0.0903 
     65 H65        16.9017  -26.6405  -41.8658 H         1 UNK         0.3096 
     66 H66        16.1321  -25.2403  -44.2561 H         1 UNK         0.1121 
     67 H67        17.4982  -26.9830  -45.4151 H         1 UNK         0.0849 
     68 H68        18.1475  -27.5244  -43.8858 H         1 UNK         0.0849 
     69 H69        15.6564  -30.3970  -45.2304 H         1 UNK         0.0865 
     70 H70        16.1994  -29.1885  -46.3672 H         1 UNK         0.0865 
     71 H71        17.3342  -31.0390  -43.2907 H         1 UNK         0.1346 
     72 H72        21.4608  -31.0114  -44.4598 H         1 UNK         0.1412 
     73 H73        18.5210  -29.0714  -46.9094 H         1 UNK         0.1426 
     74 H74        20.9711  -30.0098  -47.7530 H         1 UNK         0.0716 
     75 H75        22.1646  -29.9347  -46.4804 H         1 UNK         0.0716 
     76 H76        21.3447  -27.5545  -44.5784 H         1 UNK         0.0695 
     77 H77        22.9145  -27.8645  -45.2790 H         1 UNK         0.0695 
     78 H78        22.8704  -25.4502  -46.2350 H         1 UNK         0.0983 
     79 H79        20.7408  -24.9459  -44.2163 H         1 UNK         0.3095 
     80 H80        19.7046  -22.6715  -44.7516 H         1 UNK         0.0454 
     81 H81        19.6463  -21.6457  -47.0101 H         1 UNK         0.0851 
     82 H82        18.5246  -22.8778  -47.5706 H         1 UNK         0.0851 
     83 H83        18.0339  -21.7292  -46.3250 H         1 UNK         0.0851 
     84 H84        17.5480  -24.3062  -45.8295 H         1 UNK         0.2976 
     85 H85        24.9089  -25.5296  -45.3172 H         1 UNK         0.3116 
     86 H86        25.3462  -24.8167  -42.5324 H         1 UNK         0.0646 
     87 H87        27.7358  -25.2362  -43.1026 H         1 UNK         0.0847 
     88 H88        26.9847  -24.2022  -44.3054 H         1 UNK         0.0847 
     89 H89        27.2740  -25.9062  -44.6602 H         1 UNK         0.0847 
     90 H90        25.0045  -27.7685  -44.3773 H         1 UNK         0.3040 
     91 H91        25.8367  -29.5863  -42.2411 H         1 UNK         0.1015 
     92 H92        26.3195  -30.0687  -44.6558 H         1 UNK         0.0786 
     93 H93        24.5882  -30.1272  -44.9915 H         1 UNK         0.0786 
     94 H94        25.3277  -31.3208  -43.9341 H         1 UNK         0.0786 
     95 H95        23.2502  -27.7060  -42.1313 H         1 UNK         0.3172 
     96 H96        20.9745  -29.3493  -42.0703 H         1 UNK         0.0595 
     97 H97        20.7708  -26.9257  -42.1121 H         1 UNK         0.0839 
     98 H98        21.5798  -26.7674  -40.5527 H         1 UNK         0.0839 
     99 H99        19.9878  -27.5081  -40.6587 H         1 UNK         0.0839 
    100 H100       23.5185  -29.1054  -39.6834 H         1 UNK         0.2998 
    101 H101       22.0672  -30.3426  -37.4949 H         1 UNK         0.0822 
    102 H102       24.0163  -28.8490  -37.0978 H         1 UNK         0.0787 
    103 H103       24.3346  -30.4526  -36.4591 H         1 UNK         0.0787 
    104 H104       25.0732  -29.9564  -37.9755 H         1 UNK         0.0787 
    105 H105       23.5835  -31.6154  -40.3951 H         1 UNK         0.3055 
    106 H106       24.5152  -34.0991  -39.2988 H         1 UNK         0.1106 
    107 H107       23.8963  -33.4007  -42.2184 H         1 UNK         0.0828 
    108 H108       25.4177  -33.0343  -41.4032 H         1 UNK         0.0828 
    109 H109       24.9228  -34.7022  -41.6436 H         1 UNK         0.0828 
    110 H110       21.3600  -33.0497  -40.2616 H         1 UNK         0.2931 
    111 H111       20.2395  -35.7042  -40.6758 H         1 UNK         0.0412 
    112 H112       20.1760  -35.0481  -36.6978 H         1 UNK         0.3472 
    113 H113       21.2337  -34.1386  -37.7485 H         1 UNK         0.3472 
    114 H114       18.7792  -33.0582  -40.2351 H         1 UNK         0.0970 
    115 H115       18.0455  -34.5554  -40.7232 H         1 UNK         0.0970 
    116 H116       20.8451  -31.8435  -42.2765 H         1 UNK         0.0612 
    117 H117       19.2766  -31.3838  -41.6530 H         1 UNK         0.0612 
@<TRIPOS>BOND
     1    1    2 1    
     2    1   62 1    
     3    1   63 1    
     4    1   64 1    
     5    2    3 2    
     6    2    4 am   BACKBONE|DICT|INTERRES
     7    4    5 1    
     8    4   65 1    
     9    5    6 1    
    10    5   25 1    
    11    5   66 1    
    12    6    7 1    
    13    6   67 1    
    14    6   68 1    
    15    7    8 1    
    16    8    9 1    
    17    8   69 1    
    18    8   70 1    
    19    9   10 ar   
    20    9   14 ar   
    21   10   11 ar   
    22   10   71 1    
    23   11   12 ar   
    24   11   61 1    
    25   12   13 ar   
    26   12   72 1    
    27   13   14 ar   
    28   13   15 1    
    29   14   73 1    
    30   15   16 1    
    31   15   74 1    
    32   15   75 1    
    33   16   17 1    
    34   17   18 1    
    35   17   76 1    
    36   17   77 1    
    37   18   19 1    
    38   18   27 1    
    39   18   78 1    
    40   19   20 am   BACKBONE|DICT|INTERRES
    41   19   79 1    
    42   20   21 2    
    43   20   22 1    
    44   22   23 1    
    45   22   24 1    
    46   22   80 1    
    47   23   81 1    
    48   23   82 1    
    49   23   83 1    
    50   24   25 am   BACKBONE|DICT|INTERRES
    51   24   84 1    
    52   25   26 2    
    53   27   28 2    
    54   27   29 am   BACKBONE|DICT|INTERRES
    55   29   30 1    
    56   29   85 1    
    57   30   31 1    
    58   30   32 1    
    59   30   86 1    
    60   31   87 1    
    61   31   88 1    
    62   31   89 1    
    63   32   33 2    
    64   32   34 am   BACKBONE|DICT|INTERRES
    65   34   35 1    
    66   34   90 1    
    67   35   36 1    
    68   35   37 1    
    69   35   91 1    
    70   36   92 1    
    71   36   93 1    
    72   36   94 1    
    73   37   38 2    
    74   37   39 am   BACKBONE|DICT|INTERRES
    75   39   40 1    
    76   39   95 1    
    77   40   41 1    
    78   40   42 1    
    79   40   96 1    
    80   41   97 1    
    81   41   98 1    
    82   41   99 1    
    83   42   43 2    
    84   42   44 am   BACKBONE|DICT|INTERRES
    85   44   45 1    
    86   44  100 1    
    87   45   46 1    
    88   45   47 1    
    89   45  101 1    
    90   46  102 1    
    91   46  103 1    
    92   46  104 1    
    93   47   48 2    
    94   47   49 am   BACKBONE|DICT|INTERRES
    95   49   50 1    
    96   49  105 1    
    97   50   51 1    
    98   50   52 1    
    99   50  106 1    
   100   51  107 1    
   101   51  108 1    
   102   51  109 1    
   103   52   53 2    
   104   52   54 am   BACKBONE|DICT|INTERRES
   105   54   55 1    
   106   54  110 1    
   107   55   56 1    
   108   55   59 1    
   109   55  111 1    
   110   56   57 am   BACKBONE|DICT|INTERRES
   111   56   58 2    
   112   57  112 1    
   113   57  113 1    
   114   59   60 1    
   115   59  114 1    
   116   59  115 1    
   117   60   61 1    
   118   61  116 1    
   119   61  117 1    
@<TRIPOS>SUBSTRUCTURE
     1 UNK         1 GROUP             0       ****    0 ROOT    
