@<TRIPOS>MOLECULE
3R8
117   119    1
SMALL
USER_CHARGES


@<TRIPOS>ATOM
      1 CA         14.8851  -25.9948  -47.0519 C.3       0 UNK        -0.2013 
      2 C          16.1146  -25.1171  -46.8691 C.2       0 UNK         0.4866 
      3 O          15.9958  -23.8912  -46.8619 O.2       0 UNK        -0.5176 
      4 N          17.2924  -25.7379  -46.7299 N.am      1 UNK        -0.4884 
      5 CA         18.5694  -25.0720  -46.4500 C.3       1 UNK         0.0853 
      6 C6         19.7530  -25.8075  -47.1493 C.3       10 UNK        -0.0849 
      7 S7         20.4689  -27.2386  -46.2654 S.3       10 UNK        -0.2776 
      8 C8         19.3909  -28.6090  -46.7760 C.3       10 UNK         0.0316 
      9 C9         19.0713  -29.4800  -45.5732 C.ar      10 UNK        -0.0863 
     10 C10        19.8017  -30.6461  -45.3309 C.ar      10 UNK        -0.1009 
     11 C11        19.5388  -31.4277  -44.2019 C.ar      10 UNK        -0.0712 
     12 C12        18.5456  -31.0208  -43.3022 C.ar      10 UNK        -0.0894 
     13 C13        17.7956  -29.8657  -43.5432 C.ar      10 UNK        -0.0745 
     14 C14        18.0612  -29.1029  -44.6843 C.ar      10 UNK        -0.0972 
     15 C15        16.6734  -29.4639  -42.5944 C.3       10 UNK         0.0209 
     16 S16        16.8341  -27.7513  -41.9952 S.3       10 UNK        -0.2568 
     17 C17        18.1541  -27.8934  -40.7442 C.3       10 UNK        -0.0983 
     18 CA         19.5622  -27.4780  -41.2462 C.3       3 UNK         0.0876 
     19 N          19.5469  -26.1873  -41.9482 N.am      3 UNK        -0.4424 
     20 C          20.6095  -25.5408  -42.4451 C.2       2 UNK         0.4918 
     21 O          21.7620  -25.9755  -42.3998 O.2       2 UNK        -0.4875 
     22 CA         20.3292  -24.1874  -43.1265 C.3       2 UNK         0.0481 
     23 CB         21.5477  -23.2485  -43.0719 C.3       2 UNK        -0.1831 
     24 N          19.9378  -24.3753  -44.5237 N.am      2 UNK        -0.4498 
     25 C          18.7459  -24.8343  -44.9286 C.2       1 UNK         0.5027 
     26 O          17.8171  -25.0644  -44.1486 O.2       1 UNK        -0.4969 
     27 C          20.5424  -27.4653  -40.0528 C.2       3 UNK         0.5005 
     28 O          20.6226  -26.4574  -39.3451 O.2       3 UNK        -0.5279 
     29 N          21.2777  -28.5679  -39.8586 N.am      4 UNK        -0.4463 
     30 CA         22.3324  -28.8005  -38.8604 C.3       4 UNK         0.0283 
     31 CB         21.8433  -28.5749  -37.4164 C.3       4 UNK        -0.1875 
     32 C          23.6394  -28.0398  -39.1442 C.2       4 UNK         0.4949 
     33 O          24.7121  -28.6078  -38.9408 O.2       4 UNK        -0.5039 
     34 N          23.5412  -26.7919  -39.6191 N.am      5 UNK        -0.4663 
     35 CA         24.6752  -25.9577  -40.0170 C.3       5 UNK         0.0242 
     36 CB         24.2264  -24.4918  -40.1267 C.3       5 UNK        -0.1982 
     37 C          25.3165  -26.4434  -41.3263 C.2       5 UNK         0.5017 
     38 O          26.5315  -26.6404  -41.3651 O.2       5 UNK        -0.5012 
     39 N          24.4928  -26.6346  -42.3667 N.am      6 UNK        -0.4439 
     40 CA         24.9185  -27.1507  -43.6693 C.3       6 UNK         0.0297 
     41 CB         23.8830  -26.7746  -44.7406 C.3       6 UNK        -0.2006 
     42 C          25.1382  -28.6708  -43.6403 C.2       6 UNK         0.4892 
     43 O          26.1311  -29.1483  -44.1907 O.2       6 UNK        -0.5089 
     44 N          24.2191  -29.3959  -42.9919 N.am      7 UNK        -0.4243 
     45 CA         24.2497  -30.8432  -42.8123 C.3       7 UNK         0.0196 
     46 CB         23.8537  -31.5577  -44.1183 C.3       7 UNK        -0.2007 
     47 C          23.2866  -31.2104  -41.6818 C.2       7 UNK         0.5020 
     48 O          22.2139  -30.6103  -41.5816 O.2       7 UNK        -0.5147 
     49 N          23.6668  -32.2058  -40.8753 N.am      8 UNK        -0.4734 
     50 CA         22.8846  -32.7344  -39.7561 C.3       8 UNK         0.0238 
     51 CB         23.7416  -32.6801  -38.4761 C.3       8 UNK        -0.1912 
     52 C          22.4202  -34.1578  -40.0996 C.2       8 UNK         0.5038 
     53 O          22.8516  -35.1240  -39.4680 O.2       8 UNK        -0.5046 
     54 N          21.5792  -34.2567  -41.1349 N.am      9 UNK        -0.4200 
     55 CA         21.0315  -35.5139  -41.6692 C.3       9 UNK         0.0839 
     56 C          19.8989  -36.1624  -40.8186 C.2       9 UNK         0.5513 
     57 N          19.3778  -35.5065  -39.7883 N.am      9 UNK        -0.7519 
     58 O          19.4971  -37.2906  -41.0919 O.2       9 UNK        -0.4960 
     59 C59        20.6475  -35.3724  -43.1673 C.3       10 UNK        -0.0876 
     60 S60        19.3488  -34.1283  -43.4939 S.3       10 UNK        -0.2414 
     61 C61        20.3621  -32.6842  -43.9480 C.3       10 UNK         0.0169 
     62 H62        15.1361  -27.0554  -47.0554 H         1 UNK         0.0903 
     63 H63        14.1759  -25.8178  -46.2437 H         1 UNK         0.0903 
     64 H64        14.3928  -25.7600  -47.9953 H         1 UNK         0.0903 
     65 H65        17.3150  -26.7451  -46.7046 H         1 UNK         0.3096 
     66 H66        18.5239  -24.0738  -46.8924 H         1 UNK         0.1121 
     67 H67        20.5693  -25.0991  -47.2996 H         1 UNK         0.0849 
     68 H68        19.4682  -26.1144  -48.1573 H         1 UNK         0.0849 
     69 H69        18.4673  -28.2393  -47.2206 H         1 UNK         0.0865 
     70 H70        19.8911  -29.1883  -47.5537 H         1 UNK         0.0865 
     71 H71        20.5861  -30.9368  -46.0164 H         1 UNK         0.1346 
     72 H72        18.3469  -31.6153  -42.4212 H         1 UNK         0.1412 
     73 H73        17.4930  -28.2008  -44.8647 H         1 UNK         0.1426 
     74 H74        16.6109  -30.1426  -41.7424 H         1 UNK         0.0716 
     75 H75        15.7257  -29.5554  -43.1264 H         1 UNK         0.0716 
     76 H76        18.1751  -28.9154  -40.3611 H         1 UNK         0.0695 
     77 H77        17.8526  -27.2657  -39.9028 H         1 UNK         0.0695 
     78 H78        19.9058  -28.2203  -41.9705 H         1 UNK         0.0983 
     79 H79        18.6305  -25.7920  -42.1136 H         1 UNK         0.3095 
     80 H80        19.5116  -23.6980  -42.5927 H         1 UNK         0.0454 
     81 H81        22.4160  -23.6734  -43.5775 H         1 UNK         0.0851 
     82 H82        21.8348  -23.0482  -42.0395 H         1 UNK         0.0851 
     83 H83        21.3284  -22.2864  -43.5348 H         1 UNK         0.0851 
     84 H84        20.6671  -24.2522  -45.2108 H         1 UNK         0.2976 
     85 H85        21.2135  -29.3153  -40.5469 H         1 UNK         0.3116 
     86 H86        22.5733  -29.8591  -38.9468 H         1 UNK         0.0646 
     87 H87        21.6401  -27.5243  -37.2088 H         1 UNK         0.0847 
     88 H88        22.5978  -28.9015  -36.6997 H         1 UNK         0.0847 
     89 H89        20.9350  -29.1411  -37.2113 H         1 UNK         0.0847 
     90 H90        22.6097  -26.4035  -39.7294 H         1 UNK         0.3040 
     91 H91        25.4348  -26.0200  -39.2342 H         1 UNK         0.1015 
     92 H92        23.4370  -24.3654  -40.8668 H         1 UNK         0.0786 
     93 H93        25.0575  -23.8498  -40.4217 H         1 UNK         0.0786 
     94 H94        23.8522  -24.1201  -39.1726 H         1 UNK         0.0786 
     95 H95        23.5013  -26.4195  -42.2613 H         1 UNK         0.3172 
     96 H96        25.8651  -26.6769  -43.9381 H         1 UNK         0.0595 
     97 H97        22.9119  -27.2267  -44.5371 H         1 UNK         0.0839 
     98 H98        24.1988  -27.1151  -45.7275 H         1 UNK         0.0839 
     99 H99        23.7422  -25.6953  -44.7980 H         1 UNK         0.0839 
    100 H100       23.4343  -28.9319  -42.5535 H         1 UNK         0.2998 
    101 H101       25.2607  -31.1401  -42.5250 H         1 UNK         0.0822 
    102 H102       24.5908  -31.3895  -44.9035 H         1 UNK         0.0787 
    103 H103       23.7789  -32.6361  -43.9725 H         1 UNK         0.0787 
    104 H104       22.8901  -31.2058  -44.4880 H         1 UNK         0.0787 
    105 H105       24.5418  -32.6771  -41.0624 H         1 UNK         0.3055 
    106 H106       21.9874  -32.1347  -39.5866 H         1 UNK         0.1106 
    107 H107       23.1822  -33.0503  -37.6160 H         1 UNK         0.0828 
    108 H108       24.6438  -33.2866  -38.5648 H         1 UNK         0.0828 
    109 H109       24.0505  -31.6602  -38.2465 H         1 UNK         0.0828 
    110 H110       21.2630  -33.4117  -41.5858 H         1 UNK         0.2931 
    111 H111       21.8462  -36.2403  -41.6390 H         1 UNK         0.0412 
    112 H112       18.6498  -35.9418  -39.2435 H         1 UNK         0.3472 
    113 H113       19.6983  -34.5812  -39.5545 H         1 UNK         0.3472 
    114 H114       21.5356  -35.1271  -43.7518 H         1 UNK         0.0970 
    115 H115       20.3055  -36.3312  -43.5614 H         1 UNK         0.0970 
    116 H116       21.0697  -32.4717  -43.1505 H         1 UNK         0.0612 
    117 H117       20.9515  -32.9407  -44.8297 H         1 UNK         0.0612 
@<TRIPOS>BOND
     1    1    2 1    
     2    1   62 1    
     3    1   63 1    
     4    1   64 1    
     5    2    3 2    
     6    2    4 am   BACKBONE|DICT|INTERRES
     7    4    5 1    
     8    4   65 1    
     9    5    6 1    
    10    5   25 1    
    11    5   66 1    
    12    6    7 1    
    13    6   67 1    
    14    6   68 1    
    15    7    8 1    
    16    8    9 1    
    17    8   69 1    
    18    8   70 1    
    19    9   10 ar   
    20    9   14 ar   
    21   10   11 ar   
    22   10   71 1    
    23   11   12 ar   
    24   11   61 1    
    25   12   13 ar   
    26   12   72 1    
    27   13   14 ar   
    28   13   15 1    
    29   14   73 1    
    30   15   16 1    
    31   15   74 1    
    32   15   75 1    
    33   16   17 1    
    34   17   18 1    
    35   17   76 1    
    36   17   77 1    
    37   18   19 1    
    38   18   27 1    
    39   18   78 1    
    40   19   20 am   BACKBONE|DICT|INTERRES
    41   19   79 1    
    42   20   21 2    
    43   20   22 1    
    44   22   23 1    
    45   22   24 1    
    46   22   80 1    
    47   23   81 1    
    48   23   82 1    
    49   23   83 1    
    50   24   25 am   BACKBONE|DICT|INTERRES
    51   24   84 1    
    52   25   26 2    
    53   27   28 2    
    54   27   29 am   BACKBONE|DICT|INTERRES
    55   29   30 1    
    56   29   85 1    
    57   30   31 1    
    58   30   32 1    
    59   30   86 1    
    60   31   87 1    
    61   31   88 1    
    62   31   89 1    
    63   32   33 2    
    64   32   34 am   BACKBONE|DICT|INTERRES
    65   34   35 1    
    66   34   90 1    
    67   35   36 1    
    68   35   37 1    
    69   35   91 1    
    70   36   92 1    
    71   36   93 1    
    72   36   94 1    
    73   37   38 2    
    74   37   39 am   BACKBONE|DICT|INTERRES
    75   39   40 1    
    76   39   95 1    
    77   40   41 1    
    78   40   42 1    
    79   40   96 1    
    80   41   97 1    
    81   41   98 1    
    82   41   99 1    
    83   42   43 2    
    84   42   44 am   BACKBONE|DICT|INTERRES
    85   44   45 1    
    86   44  100 1    
    87   45   46 1    
    88   45   47 1    
    89   45  101 1    
    90   46  102 1    
    91   46  103 1    
    92   46  104 1    
    93   47   48 2    
    94   47   49 am   BACKBONE|DICT|INTERRES
    95   49   50 1    
    96   49  105 1    
    97   50   51 1    
    98   50   52 1    
    99   50  106 1    
   100   51  107 1    
   101   51  108 1    
   102   51  109 1    
   103   52   53 2    
   104   52   54 am   BACKBONE|DICT|INTERRES
   105   54   55 1    
   106   54  110 1    
   107   55   56 1    
   108   55   59 1    
   109   55  111 1    
   110   56   57 am   BACKBONE|DICT|INTERRES
   111   56   58 2    
   112   57  112 1    
   113   57  113 1    
   114   59   60 1    
   115   59  114 1    
   116   59  115 1    
   117   60   61 1    
   118   61  116 1    
   119   61  117 1    
@<TRIPOS>SUBSTRUCTURE
     1 UNK         1 GROUP             0       ****    0 ROOT    
