@<TRIPOS>MOLECULE
3R8
117   119    1
SMALL
USER_CHARGES


@<TRIPOS>ATOM
      1 CA         15.8474  -25.3255  -47.5943 C.3       0 UNK        -0.2013 
      2 C          16.5748  -26.1712  -46.5603 C.2       0 UNK         0.4866 
      3 O          17.7669  -25.9655  -46.3288 O.2       0 UNK        -0.5176 
      4 N          15.8676  -27.1171  -45.9286 N.am      1 UNK        -0.4884 
      5 CA         16.3871  -28.0301  -44.9025 C.3       1 UNK         0.0853 
      6 C6         15.5437  -29.3313  -44.8196 C.3       10 UNK        -0.0849 
      7 S7         16.0642  -30.5109  -46.1093 S.3       10 UNK        -0.2776 
      8 C8         17.1802  -31.6070  -45.1657 C.3       10 UNK         0.0316 
      9 C9         18.2862  -30.8394  -44.4496 C.ar      10 UNK        -0.0863 
     10 C10        18.2121  -30.6210  -43.0701 C.ar      10 UNK        -0.1009 
     11 C11        19.2245  -29.9261  -42.4039 C.ar      10 UNK        -0.0712 
     12 C12        20.3161  -29.4421  -43.1296 C.ar      10 UNK        -0.0894 
     13 C13        20.3941  -29.6336  -44.5123 C.ar      10 UNK        -0.0745 
     14 C14        19.3784  -30.3401  -45.1653 C.ar      10 UNK        -0.0972 
     15 C15        21.5879  -29.1122  -45.3007 C.3       10 UNK         0.0209 
     16 S16        21.4969  -27.3139  -45.5837 S.3       10 UNK        -0.2568 
     17 C17        22.3647  -26.6677  -44.1141 C.3       10 UNK        -0.0983 
     18 CA         21.6023  -25.5343  -43.3805 C.3       3 UNK         0.0876 
     19 N          20.2154  -25.8894  -43.0615 N.am      3 UNK        -0.4424 
     20 C          19.3039  -25.0379  -42.5686 C.2       2 UNK         0.4918 
     21 O          19.5300  -23.8458  -42.3530 O.2       2 UNK        -0.4875 
     22 CA         17.8982  -25.6079  -42.3243 C.3       2 UNK         0.0481 
     23 CB         16.8536  -24.5241  -41.9854 C.3       2 UNK        -0.1831 
     24 N          17.4850  -26.3675  -43.4996 N.am      2 UNK        -0.4498 
     25 C          16.5505  -27.3210  -43.5415 C.2       1 UNK         0.5027 
     26 O          15.8465  -27.6344  -42.5796 O.2       1 UNK        -0.4969 
     27 C          22.3748  -25.1499  -42.1041 C.2       3 UNK         0.5005 
     28 O          22.2879  -25.8749  -41.1102 O.2       3 UNK        -0.5279 
     29 N          23.1650  -24.0684  -42.1672 N.am      4 UNK        -0.4463 
     30 CA         24.0071  -23.5883  -41.0620 C.3       4 UNK         0.0283 
     31 CB         24.6225  -22.2312  -41.4395 C.3       4 UNK        -0.1875 
     32 C          25.1092  -24.5811  -40.6455 C.2       4 UNK         0.4949 
     33 O          25.5068  -24.5929  -39.4808 O.2       4 UNK        -0.5039 
     34 N          25.5624  -25.4079  -41.5975 N.am      5 UNK        -0.4663 
     35 CA         26.5136  -26.4990  -41.3763 C.3       5 UNK         0.0242 
     36 CB         27.1782  -26.8514  -42.7179 C.3       5 UNK        -0.1982 
     37 C          25.8755  -27.7555  -40.7520 C.2       5 UNK         0.5017 
     38 O          26.6198  -28.6239  -40.2949 O.2       5 UNK        -0.5012 
     39 N          24.5339  -27.8423  -40.7554 N.am      6 UNK        -0.4439 
     40 CA         23.7156  -28.9822  -40.3285 C.3       6 UNK         0.0297 
     41 CB         23.7489  -29.1242  -38.7893 C.3       6 UNK        -0.2006 
     42 C          24.0863  -30.2648  -41.1032 C.2       6 UNK         0.4892 
     43 O          24.0189  -30.2533  -42.3341 O.2       6 UNK        -0.5089 
     44 N          24.4746  -31.3258  -40.3791 N.am      7 UNK        -0.4243 
     45 CA         25.0232  -32.6153  -40.8277 C.3       7 UNK         0.0196 
     46 CB         26.3340  -32.4189  -41.6148 C.3       7 UNK        -0.2007 
     47 C          24.0483  -33.5189  -41.6020 C.2       7 UNK         0.5020 
     48 O          23.9418  -34.7018  -41.2792 O.2       7 UNK        -0.5147 
     49 N          23.3579  -32.9638  -42.6023 N.am      8 UNK        -0.4734 
     50 CA         22.4022  -33.6716  -43.4613 C.3       8 UNK         0.0238 
     51 CB         22.3187  -32.9398  -44.8104 C.3       8 UNK        -0.1912 
     52 C          21.0035  -33.8265  -42.8340 C.2       8 UNK         0.5038 
     53 O          20.1558  -34.4945  -43.4284 O.2       8 UNK        -0.5046 
     54 N          20.7813  -33.1983  -41.6728 N.am      9 UNK        -0.4200 
     55 CA         19.5178  -33.1800  -40.9254 C.3       9 UNK         0.0839 
     56 C          19.0319  -34.5905  -40.4928 C.2       9 UNK         0.5513 
     57 N          17.7271  -34.8274  -40.5009 N.am      9 UNK        -0.7519 
     58 O          19.8200  -35.4491  -40.1017 O.2       9 UNK        -0.4960 
     59 C59        19.5807  -32.2308  -39.6972 C.3       10 UNK        -0.0876 
     60 S60        20.3983  -30.6227  -39.9905 S.3       10 UNK        -0.2414 
     61 C61        19.1384  -29.6797  -40.9043 C.3       10 UNK         0.0169 
     62 H62        16.3277  -25.4288  -48.5669 H         1 UNK         0.0903 
     63 H63        14.8027  -25.6174  -47.6994 H         1 UNK         0.0903 
     64 H64        15.8794  -24.2745  -47.3083 H         1 UNK         0.0903 
     65 H65        14.8878  -27.2267  -46.1491 H         1 UNK         0.3096 
     66 H66        17.4026  -28.3077  -45.1929 H         1 UNK         0.1121 
     67 H67        14.4797  -29.1172  -44.9320 H         1 UNK         0.0849 
     68 H68        15.6364  -29.8265  -43.8520 H         1 UNK         0.0849 
     69 H69        17.6260  -32.3325  -45.8477 H         1 UNK         0.0865 
     70 H70        16.5927  -32.1871  -44.4522 H         1 UNK         0.0865 
     71 H71        17.3645  -30.9937  -42.5118 H         1 UNK         0.1346 
     72 H72        21.1069  -28.9236  -42.6078 H         1 UNK         0.1412 
     73 H73        19.4329  -30.5002  -46.2337 H         1 UNK         0.1426 
     74 H74        21.6377  -29.6066  -46.2720 H         1 UNK         0.0716 
     75 H75        22.5168  -29.3714  -44.7898 H         1 UNK         0.0716 
     76 H76        23.3363  -26.3024  -44.4519 H         1 UNK         0.0695 
     77 H77        22.5873  -27.4887  -43.4313 H         1 UNK         0.0695 
     78 H78        21.5648  -24.6656  -44.0417 H         1 UNK         0.0983 
     79 H79        19.9541  -26.8503  -43.2244 H         1 UNK         0.3095 
     80 H80        17.9786  -26.2911  -41.4763 H         1 UNK         0.0454 
     81 H81        16.7281  -23.8184  -42.8073 H         1 UNK         0.0851 
     82 H82        17.1524  -23.9534  -41.1053 H         1 UNK         0.0851 
     83 H83        15.8790  -24.9600  -41.7668 H         1 UNK         0.0851 
     84 H84        17.9550  -26.1372  -44.3728 H         1 UNK         0.2976 
     85 H85        23.1868  -23.5255  -43.0194 H         1 UNK         0.3116 
     86 H86        23.3600  -23.4395  -40.1948 H         1 UNK         0.0646 
     87 H87        25.2652  -22.3074  -42.3174 H         1 UNK         0.0847 
     88 H88        25.2322  -21.8396  -40.6239 H         1 UNK         0.0847 
     89 H89        23.8521  -21.4888  -41.6486 H         1 UNK         0.0847 
     90 H90        25.1947  -25.3062  -42.5321 H         1 UNK         0.3040 
     91 H91        27.2895  -26.1543  -40.6886 H         1 UNK         0.1015 
     92 H92        27.6876  -25.9890  -43.1484 H         1 UNK         0.0786 
     93 H93        26.4512  -27.2131  -43.4465 H         1 UNK         0.0786 
     94 H94        27.9263  -27.6353  -42.5894 H         1 UNK         0.0786 
     95 H95        24.0054  -27.0514  -41.1055 H         1 UNK         0.3172 
     96 H96        22.6915  -28.7398  -40.6143 H         1 UNK         0.0595 
     97 H97        24.7474  -29.3519  -38.4142 H         1 UNK         0.0839 
     98 H98        23.0725  -29.9086  -38.4473 H         1 UNK         0.0839 
     99 H99        23.4240  -28.2003  -38.3103 H         1 UNK         0.0839 
    100 H100       24.4543  -31.2094  -39.3755 H         1 UNK         0.2998 
    101 H101       25.2769  -33.1529  -39.9124 H         1 UNK         0.0822 
    102 H102       27.0614  -31.8499  -41.0355 H         1 UNK         0.0787 
    103 H103       26.7907  -33.3794  -41.8574 H         1 UNK         0.0787 
    104 H104       26.1713  -31.8912  -42.5552 H         1 UNK         0.0787 
    105 H105       23.5040  -31.9701  -42.7738 H         1 UNK         0.3055 
    106 H106       22.7770  -34.6808  -43.6466 H         1 UNK         0.1106 
    107 H107       21.9654  -31.9182  -44.6847 H         1 UNK         0.0828 
    108 H108       23.2903  -32.9012  -45.3029 H         1 UNK         0.0828 
    109 H109       21.6300  -33.4419  -45.4913 H         1 UNK         0.0828 
    110 H110       21.5378  -32.6677  -41.2698 H         1 UNK         0.2931 
    111 H111       18.7713  -32.7857  -41.6131 H         1 UNK         0.0412 
    112 H112       17.0700  -34.1267  -40.8072 H         1 UNK         0.3472 
    113 H113       17.3916  -35.7313  -40.2052 H         1 UNK         0.3472 
    114 H114       18.5769  -32.0486  -39.3092 H         1 UNK         0.0970 
    115 H115       20.1281  -32.7106  -38.8833 H         1 UNK         0.0970 
    116 H116       18.1448  -29.9146  -40.5198 H         1 UNK         0.0612 
    117 H117       19.2955  -28.6169  -40.7146 H         1 UNK         0.0612 
@<TRIPOS>BOND
     1    1    2 1    
     2    1   62 1    
     3    1   63 1    
     4    1   64 1    
     5    2    3 2    
     6    2    4 am   BACKBONE|DICT|INTERRES
     7    4    5 1    
     8    4   65 1    
     9    5    6 1    
    10    5   25 1    
    11    5   66 1    
    12    6    7 1    
    13    6   67 1    
    14    6   68 1    
    15    7    8 1    
    16    8    9 1    
    17    8   69 1    
    18    8   70 1    
    19    9   10 ar   
    20    9   14 ar   
    21   10   11 ar   
    22   10   71 1    
    23   11   12 ar   
    24   11   61 1    
    25   12   13 ar   
    26   12   72 1    
    27   13   14 ar   
    28   13   15 1    
    29   14   73 1    
    30   15   16 1    
    31   15   74 1    
    32   15   75 1    
    33   16   17 1    
    34   17   18 1    
    35   17   76 1    
    36   17   77 1    
    37   18   19 1    
    38   18   27 1    
    39   18   78 1    
    40   19   20 am   BACKBONE|DICT|INTERRES
    41   19   79 1    
    42   20   21 2    
    43   20   22 1    
    44   22   23 1    
    45   22   24 1    
    46   22   80 1    
    47   23   81 1    
    48   23   82 1    
    49   23   83 1    
    50   24   25 am   BACKBONE|DICT|INTERRES
    51   24   84 1    
    52   25   26 2    
    53   27   28 2    
    54   27   29 am   BACKBONE|DICT|INTERRES
    55   29   30 1    
    56   29   85 1    
    57   30   31 1    
    58   30   32 1    
    59   30   86 1    
    60   31   87 1    
    61   31   88 1    
    62   31   89 1    
    63   32   33 2    
    64   32   34 am   BACKBONE|DICT|INTERRES
    65   34   35 1    
    66   34   90 1    
    67   35   36 1    
    68   35   37 1    
    69   35   91 1    
    70   36   92 1    
    71   36   93 1    
    72   36   94 1    
    73   37   38 2    
    74   37   39 am   BACKBONE|DICT|INTERRES
    75   39   40 1    
    76   39   95 1    
    77   40   41 1    
    78   40   42 1    
    79   40   96 1    
    80   41   97 1    
    81   41   98 1    
    82   41   99 1    
    83   42   43 2    
    84   42   44 am   BACKBONE|DICT|INTERRES
    85   44   45 1    
    86   44  100 1    
    87   45   46 1    
    88   45   47 1    
    89   45  101 1    
    90   46  102 1    
    91   46  103 1    
    92   46  104 1    
    93   47   48 2    
    94   47   49 am   BACKBONE|DICT|INTERRES
    95   49   50 1    
    96   49  105 1    
    97   50   51 1    
    98   50   52 1    
    99   50  106 1    
   100   51  107 1    
   101   51  108 1    
   102   51  109 1    
   103   52   53 2    
   104   52   54 am   BACKBONE|DICT|INTERRES
   105   54   55 1    
   106   54  110 1    
   107   55   56 1    
   108   55   59 1    
   109   55  111 1    
   110   56   57 am   BACKBONE|DICT|INTERRES
   111   56   58 2    
   112   57  112 1    
   113   57  113 1    
   114   59   60 1    
   115   59  114 1    
   116   59  115 1    
   117   60   61 1    
   118   61  116 1    
   119   61  117 1    
@<TRIPOS>SUBSTRUCTURE
     1 UNK         1 GROUP             0       ****    0 ROOT    
