@<TRIPOS>MOLECULE
3R8
117   119    1
SMALL
USER_CHARGES


@<TRIPOS>ATOM
      1 CA         14.5476  -23.6554  -47.0029 C.3       0 UNK        -0.2013 
      2 C          14.9977  -24.6853  -45.9777 C.2       0 UNK         0.4866 
      3 O          14.4511  -24.7255  -44.8755 O.2       0 UNK        -0.5176 
      4 N          15.9966  -25.5069  -46.3332 N.am      1 UNK        -0.4884 
      5 CA         16.5722  -26.5949  -45.5218 C.3       1 UNK         0.0853 
      6 C6         15.5671  -27.7424  -45.2208 C.3       10 UNK        -0.0849 
      7 S7         15.0717  -28.5935  -46.7584 S.3       10 UNK        -0.2776 
      8 C8         15.5568  -30.3241  -46.4244 C.3       10 UNK         0.0316 
      9 C9         17.0224  -30.5206  -46.0340 C.ar      10 UNK        -0.0863 
     10 C10        17.3441  -31.4540  -45.0423 C.ar      10 UNK        -0.1009 
     11 C11        18.6750  -31.6871  -44.6844 C.ar      10 UNK        -0.0712 
     12 C12        19.6903  -30.9622  -45.3115 C.ar      10 UNK        -0.0894 
     13 C13        19.3880  -30.0187  -46.2953 C.ar      10 UNK        -0.0745 
     14 C14        18.0545  -29.8155  -46.6664 C.ar      10 UNK        -0.0972 
     15 C15        20.5047  -29.2408  -46.9757 C.3       10 UNK         0.0209 
     16 S16        20.6539  -27.5500  -46.3204 S.3       10 UNK        -0.2568 
     17 C17        21.5135  -27.8150  -44.7287 C.3       10 UNK        -0.0983 
     18 CA         21.6567  -26.4848  -43.9482 C.3       3 UNK         0.0876 
     19 N          20.3472  -25.8985  -43.6484 N.am      3 UNK        -0.4424 
     20 C          20.1018  -24.6019  -43.4281 C.2       2 UNK         0.4918 
     21 O          20.9807  -23.7396  -43.3906 O.2       2 UNK        -0.4875 
     22 CA         18.6177  -24.2105  -43.2553 C.3       2 UNK         0.0481 
     23 CB         18.4000  -22.6865  -43.2840 C.3       2 UNK        -0.1831 
     24 N          17.7689  -24.8314  -44.2788 N.am      2 UNK        -0.4498 
     25 C          17.3220  -26.0961  -44.2656 C.2       1 UNK         0.5027 
     26 O          17.5568  -26.8722  -43.3378 O.2       1 UNK        -0.4969 
     27 C          22.5228  -26.6382  -42.6800 C.2       3 UNK         0.5005 
     28 O          23.7504  -26.6361  -42.7861 O.2       3 UNK        -0.5279 
     29 N          21.8724  -26.7125  -41.5069 N.am      4 UNK        -0.4463 
     30 CA         22.4532  -26.6681  -40.1607 C.3       4 UNK         0.0283 
     31 CB         22.9422  -25.2339  -39.8517 C.3       4 UNK        -0.1875 
     32 C          23.5186  -27.7572  -39.9221 C.2       4 UNK         0.4949 
     33 O          23.3547  -28.8814  -40.3991 O.2       4 UNK        -0.5039 
     34 N          24.5864  -27.4167  -39.1876 N.am      5 UNK        -0.4663 
     35 CA         25.6709  -28.3124  -38.7687 C.3       5 UNK         0.0242 
     36 CB         26.5905  -27.5566  -37.7955 C.3       5 UNK        -0.1982 
     37 C          26.4942  -28.9309  -39.9138 C.2       5 UNK         0.5017 
     38 O          27.1770  -29.9277  -39.6775 O.2       5 UNK        -0.5012 
     39 N          26.4142  -28.3574  -41.1243 N.am      6 UNK        -0.4439 
     40 CA         27.0124  -28.9217  -42.3378 C.3       6 UNK         0.0297 
     41 CB         27.0167  -27.8683  -43.4566 C.3       6 UNK        -0.2006 
     42 C          26.3013  -30.2066  -42.8015 C.2       6 UNK         0.4892 
     43 O          26.9556  -31.0781  -43.3752 O.2       6 UNK        -0.5089 
     44 N          24.9926  -30.3066  -42.5300 N.am      7 UNK        -0.4243 
     45 CA         24.1894  -31.5096  -42.7464 C.3       7 UNK         0.0196 
     46 CB         22.8073  -31.1069  -43.2785 C.3       7 UNK        -0.2007 
     47 C          24.0474  -32.3176  -41.4490 C.2       7 UNK         0.5020 
     48 O          24.1253  -33.5449  -41.4914 O.2       7 UNK        -0.5147 
     49 N          23.8311  -31.6115  -40.3283 N.am      8 UNK        -0.4734 
     50 CA         23.6365  -32.1149  -38.9617 C.3       8 UNK         0.0238 
     51 CB         24.8971  -32.8482  -38.4565 C.3       8 UNK        -0.1912 
     52 C          22.3477  -32.9407  -38.7663 C.2       8 UNK         0.5038 
     53 O          22.2368  -33.6608  -37.7720 O.2       8 UNK        -0.5046 
     54 N          21.3938  -32.8162  -39.6977 N.am      9 UNK        -0.4200 
     55 CA         20.0617  -33.4279  -39.6285 C.3       9 UNK         0.0839 
     56 C          19.1138  -32.7120  -38.6253 C.2       9 UNK         0.5513 
     57 N          18.0514  -33.3811  -38.1974 N.am      9 UNK        -0.7519 
     58 O          19.3169  -31.5608  -38.2429 O.2       9 UNK        -0.4960 
     59 C59        19.4353  -33.5914  -41.0388 C.3       10 UNK        -0.0876 
     60 S60        19.2636  -32.0442  -41.9961 S.3       10 UNK        -0.2414 
     61 C61        19.0190  -32.7509  -43.6532 C.3       10 UNK         0.0169 
     62 H62        15.1163  -23.7249  -47.9301 H         1 UNK         0.0903 
     63 H63        13.4941  -23.8003  -47.2409 H         1 UNK         0.0903 
     64 H64        14.6713  -22.6491  -46.6036 H         1 UNK         0.0903 
     65 H65        16.3931  -25.4149  -47.2590 H         1 UNK         0.3096 
     66 H66        17.3678  -27.0216  -46.1345 H         1 UNK         0.1121 
     67 H67        14.6756  -27.3643  -44.7192 H         1 UNK         0.0849 
     68 H68        15.9983  -28.4767  -44.5385 H         1 UNK         0.0849 
     69 H69        14.9017  -30.7112  -45.6421 H         1 UNK         0.0865 
     70 H70        15.3533  -30.9205  -47.3146 H         1 UNK         0.0865 
     71 H71        16.5580  -32.0171  -44.5575 H         1 UNK         0.1346 
     72 H72        20.7192  -31.1418  -45.0428 H         1 UNK         0.1412 
     73 H73        17.8225  -29.1027  -47.4456 H         1 UNK         0.1426 
     74 H74        21.4605  -29.7575  -46.8744 H         1 UNK         0.0716 
     75 H75        20.3025  -29.1843  -48.0463 H         1 UNK         0.0716 
     76 H76        22.4950  -28.2444  -44.9387 H         1 UNK         0.0695 
     77 H77        20.9645  -28.5523  -44.1401 H         1 UNK         0.0695 
     78 H78        22.1930  -25.7836  -44.5922 H         1 UNK         0.0983 
     79 H79        19.5556  -26.5314  -43.6536 H         1 UNK         0.3095 
     80 H80        18.3044  -24.5695  -42.2729 H         1 UNK         0.0454 
     81 H81        17.3507  -22.4327  -43.1328 H         1 UNK         0.0851 
     82 H82        18.7184  -22.2503  -44.2315 H         1 UNK         0.0851 
     83 H83        18.9661  -22.1947  -42.4917 H         1 UNK         0.0851 
     84 H84        17.5624  -24.2721  -45.0941 H         1 UNK         0.2976 
     85 H85        20.8639  -26.7503  -41.5429 H         1 UNK         0.3116 
     86 H86        21.6377  -26.8947  -39.4725 H         1 UNK         0.0646 
     87 H87        22.1621  -24.5015  -40.0607 H         1 UNK         0.0847 
     88 H88        23.2062  -25.1154  -38.8002 H         1 UNK         0.0847 
     89 H89        23.8125  -24.9622  -40.4510 H         1 UNK         0.0847 
     90 H90        24.6421  -26.4656  -38.8524 H         1 UNK         0.3040 
     91 H91        25.2150  -29.1455  -38.2291 H         1 UNK         0.1015 
     92 H92        27.0579  -26.6931  -38.2707 H         1 UNK         0.0786 
     93 H93        27.3920  -28.2018  -37.4323 H         1 UNK         0.0786 
     94 H94        26.0422  -27.2050  -36.9212 H         1 UNK         0.0786 
     95 H95        25.8194  -27.5472  -41.2366 H         1 UNK         0.3172 
     96 H96        28.0501  -29.1790  -42.1144 H         1 UNK         0.0595 
     97 H97        26.0063  -27.5877  -43.7542 H         1 UNK         0.0839 
     98 H98        27.5206  -28.2499  -44.3457 H         1 UNK         0.0839 
     99 H99        27.5418  -26.9633  -43.1510 H         1 UNK         0.0839 
    100 H100       24.5451  -29.5480  -42.0286 H         1 UNK         0.2998 
    101 H101       24.6639  -32.1521  -43.4914 H         1 UNK         0.0822 
    102 H102       22.1776  -31.9869  -43.4149 H         1 UNK         0.0787 
    103 H103       22.2851  -30.4311  -42.5995 H         1 UNK         0.0787 
    104 H104       22.8939  -30.6115  -44.2452 H         1 UNK         0.0787 
    105 H105       23.7201  -30.6015  -40.4208 H         1 UNK         0.3055 
    106 H106       23.5053  -31.2286  -38.3389 H         1 UNK         0.1106 
    107 H107       25.7905  -32.2378  -38.5895 H         1 UNK         0.0828 
    108 H108       24.8189  -33.0767  -37.3930 H         1 UNK         0.0828 
    109 H109       25.0542  -33.7919  -38.9792 H         1 UNK         0.0828 
    110 H110       21.5461  -32.1750  -40.4613 H         1 UNK         0.2931 
    111 H111       20.2040  -34.4375  -39.2370 H         1 UNK         0.0412 
    112 H112       17.8720  -34.3266  -38.4984 H         1 UNK         0.3472 
    113 H113       17.4191  -32.9339  -37.5516 H         1 UNK         0.3472 
    114 H114       20.0530  -34.2822  -41.6153 H         1 UNK         0.0970 
    115 H115       18.4554  -34.0675  -40.9709 H         1 UNK         0.0970 
    116 H116       19.9241  -33.2797  -43.9563 H         1 UNK         0.0612 
    117 H117       18.2260  -33.4993  -43.6106 H         1 UNK         0.0612 
@<TRIPOS>BOND
     1    1    2 1    
     2    1   62 1    
     3    1   63 1    
     4    1   64 1    
     5    2    3 2    
     6    2    4 am   BACKBONE|DICT|INTERRES
     7    4    5 1    
     8    4   65 1    
     9    5    6 1    
    10    5   25 1    
    11    5   66 1    
    12    6    7 1    
    13    6   67 1    
    14    6   68 1    
    15    7    8 1    
    16    8    9 1    
    17    8   69 1    
    18    8   70 1    
    19    9   10 ar   
    20    9   14 ar   
    21   10   11 ar   
    22   10   71 1    
    23   11   12 ar   
    24   11   61 1    
    25   12   13 ar   
    26   12   72 1    
    27   13   14 ar   
    28   13   15 1    
    29   14   73 1    
    30   15   16 1    
    31   15   74 1    
    32   15   75 1    
    33   16   17 1    
    34   17   18 1    
    35   17   76 1    
    36   17   77 1    
    37   18   19 1    
    38   18   27 1    
    39   18   78 1    
    40   19   20 am   BACKBONE|DICT|INTERRES
    41   19   79 1    
    42   20   21 2    
    43   20   22 1    
    44   22   23 1    
    45   22   24 1    
    46   22   80 1    
    47   23   81 1    
    48   23   82 1    
    49   23   83 1    
    50   24   25 am   BACKBONE|DICT|INTERRES
    51   24   84 1    
    52   25   26 2    
    53   27   28 2    
    54   27   29 am   BACKBONE|DICT|INTERRES
    55   29   30 1    
    56   29   85 1    
    57   30   31 1    
    58   30   32 1    
    59   30   86 1    
    60   31   87 1    
    61   31   88 1    
    62   31   89 1    
    63   32   33 2    
    64   32   34 am   BACKBONE|DICT|INTERRES
    65   34   35 1    
    66   34   90 1    
    67   35   36 1    
    68   35   37 1    
    69   35   91 1    
    70   36   92 1    
    71   36   93 1    
    72   36   94 1    
    73   37   38 2    
    74   37   39 am   BACKBONE|DICT|INTERRES
    75   39   40 1    
    76   39   95 1    
    77   40   41 1    
    78   40   42 1    
    79   40   96 1    
    80   41   97 1    
    81   41   98 1    
    82   41   99 1    
    83   42   43 2    
    84   42   44 am   BACKBONE|DICT|INTERRES
    85   44   45 1    
    86   44  100 1    
    87   45   46 1    
    88   45   47 1    
    89   45  101 1    
    90   46  102 1    
    91   46  103 1    
    92   46  104 1    
    93   47   48 2    
    94   47   49 am   BACKBONE|DICT|INTERRES
    95   49   50 1    
    96   49  105 1    
    97   50   51 1    
    98   50   52 1    
    99   50  106 1    
   100   51  107 1    
   101   51  108 1    
   102   51  109 1    
   103   52   53 2    
   104   52   54 am   BACKBONE|DICT|INTERRES
   105   54   55 1    
   106   54  110 1    
   107   55   56 1    
   108   55   59 1    
   109   55  111 1    
   110   56   57 am   BACKBONE|DICT|INTERRES
   111   56   58 2    
   112   57  112 1    
   113   57  113 1    
   114   59   60 1    
   115   59  114 1    
   116   59  115 1    
   117   60   61 1    
   118   61  116 1    
   119   61  117 1    
@<TRIPOS>SUBSTRUCTURE
     1 UNK         1 GROUP             0       ****    0 ROOT    
