@<TRIPOS>MOLECULE
3R8
117   119    1
SMALL
USER_CHARGES


@<TRIPOS>ATOM
      1 CA         12.5992  -25.2852  -43.2767 C.3       0 UNK        -0.2013 
      2 C          13.9423  -25.2617  -43.9907 C.2       0 UNK         0.4866 
      3 O          14.6649  -24.2691  -43.9024 O.2       0 UNK        -0.5176 
      4 N          14.2821  -26.3473  -44.6993 N.am      1 UNK        -0.4884 
      5 CA         15.5454  -26.5030  -45.4343 C.3       1 UNK         0.0853 
      6 C6         15.4361  -27.6370  -46.4864 C.3       10 UNK        -0.0849 
      7 S7         16.7016  -27.5207  -47.7989 S.3       10 UNK        -0.2776 
      8 C8         17.4508  -29.1824  -47.7702 C.3       10 UNK         0.0316 
      9 C9         18.3237  -29.4309  -46.5447 C.ar      10 UNK        -0.0863 
     10 C10        17.8519  -30.2237  -45.4935 C.ar      10 UNK        -0.1009 
     11 C11        18.6765  -30.5228  -44.4060 C.ar      10 UNK        -0.0712 
     12 C12        19.9837  -30.0283  -44.3767 C.ar      10 UNK        -0.0894 
     13 C13        20.4661  -29.2161  -45.4082 C.ar      10 UNK        -0.0745 
     14 C14        19.6265  -28.9208  -46.4891 C.ar      10 UNK        -0.0972 
     15 C15        21.9160  -28.7338  -45.4135 C.3       10 UNK         0.0209 
     16 S16        22.5214  -28.1220  -43.8005 S.3       10 UNK        -0.2568 
     17 C17        21.8969  -26.4042  -43.7511 C.3       10 UNK        -0.0983 
     18 CA         20.9509  -26.0928  -42.5613 C.3       3 UNK         0.0876 
     19 N          19.7558  -26.9279  -42.6153 N.am      3 UNK        -0.4424 
     20 C          18.5948  -26.6617  -42.0093 C.2       2 UNK         0.4918 
     21 O          18.3813  -25.6665  -41.3137 O.2       2 UNK        -0.4875 
     22 CA         17.4688  -27.6773  -42.2696 C.3       2 UNK         0.0481 
     23 CB         16.7069  -28.0112  -40.9760 C.3       2 UNK        -0.1831 
     24 N          16.5083  -27.2685  -43.3019 N.am      2 UNK        -0.4498 
     25 C          16.7585  -26.7078  -44.4991 C.2       1 UNK         0.5027 
     26 O          17.8714  -26.3560  -44.8893 O.2       1 UNK        -0.4969 
     27 C          21.6590  -26.1933  -41.1921 C.2       3 UNK         0.5005 
     28 O          21.4888  -27.1813  -40.4732 O.2       3 UNK        -0.5279 
     29 N          22.4623  -25.1701  -40.8705 N.am      4 UNK        -0.4463 
     30 CA         23.2878  -25.1022  -39.6578 C.3       4 UNK         0.0283 
     31 CB         23.4088  -23.6302  -39.2259 C.3       4 UNK        -0.1875 
     32 C          24.6854  -25.7287  -39.8420 C.2       4 UNK         0.4949 
     33 O          25.4538  -25.7777  -38.8805 O.2       4 UNK        -0.5039 
     34 N          25.0068  -26.1636  -41.0674 N.am      5 UNK        -0.4663 
     35 CA         26.2673  -26.8060  -41.4424 C.3       5 UNK         0.0242 
     36 CB         26.3896  -26.7505  -42.9770 C.3       5 UNK        -0.1982 
     37 C          26.3551  -28.2598  -40.9427 C.2       5 UNK         0.5017 
     38 O          25.3705  -28.8142  -40.4529 O.2       5 UNK        -0.5012 
     39 N          27.5221  -28.8879  -41.1466 N.am      6 UNK        -0.4439 
     40 CA         27.7793  -30.3079  -40.8582 C.3       6 UNK         0.0297 
     41 CB         29.2703  -30.6051  -41.0880 C.3       6 UNK        -0.2006 
     42 C          26.9031  -31.2932  -41.6633 C.2       6 UNK         0.4892 
     43 O          26.7967  -32.4580  -41.2799 O.2       6 UNK        -0.5089 
     44 N          26.2807  -30.8055  -42.7449 N.am      7 UNK        -0.4243 
     45 CA         25.3036  -31.5118  -43.5733 C.3       7 UNK         0.0196 
     46 CB         25.2644  -30.8348  -44.9552 C.3       7 UNK        -0.2007 
     47 C          23.8901  -31.5918  -42.9542 C.2       7 UNK         0.5020 
     48 O          23.0012  -32.1419  -43.6052 O.2       7 UNK        -0.5147 
     49 N          23.6875  -31.0429  -41.7438 N.am      8 UNK        -0.4734 
     50 CA         22.4271  -31.0592  -40.9897 C.3       8 UNK         0.0238 
     51 CB         22.6404  -30.3977  -39.6190 C.3       8 UNK        -0.1912 
     52 C          21.8377  -32.4705  -40.8051 C.2       8 UNK         0.5038 
     53 O          22.5807  -33.4189  -40.5398 O.2       8 UNK        -0.5046 
     54 N          20.5104  -32.5670  -40.9352 N.am      9 UNK        -0.4200 
     55 CA         19.7479  -33.8267  -40.9195 C.3       9 UNK         0.0839 
     56 C          19.5093  -34.4277  -39.5037 C.2       9 UNK         0.5513 
     57 N          19.8545  -33.7436  -38.4195 N.am      9 UNK        -0.7519 
     58 O          19.0043  -35.5415  -39.3882 O.2       9 UNK        -0.4960 
     59 C59        18.4144  -33.6966  -41.7067 C.3       10 UNK        -0.0876 
     60 S60        18.6591  -33.1085  -43.4201 S.3       10 UNK        -0.2414 
     61 C61        18.1576  -31.3688  -43.2540 C.3       10 UNK         0.0169 
     62 H62        12.0628  -26.2190  -43.4444 H         1 UNK         0.0903 
     63 H63        12.7430  -25.1649  -42.2032 H         1 UNK         0.0903 
     64 H64        11.9724  -24.4668  -43.6300 H         1 UNK         0.0903 
     65 H65        13.6409  -27.1273  -44.7484 H         1 UNK         0.3096 
     66 H66        15.7203  -25.5661  -45.9692 H         1 UNK         0.1121 
     67 H67        15.4626  -28.6178  -46.0093 H         1 UNK         0.0849 
     68 H68        14.4688  -27.5815  -46.9886 H         1 UNK         0.0849 
     69 H69        16.6639  -29.9349  -47.8433 H         1 UNK         0.0865 
     70 H70        18.0588  -29.3027  -48.6682 H         1 UNK         0.0865 
     71 H71        16.8481  -30.6246  -45.5280 H         1 UNK         0.1346 
     72 H72        20.6360  -30.2944  -43.5582 H         1 UNK         0.1412 
     73 H73        19.9943  -28.3160  -47.3068 H         1 UNK         0.1426 
     74 H74        22.0693  -27.9615  -46.1687 H         1 UNK         0.0716 
     75 H75        22.5415  -29.5761  -45.7106 H         1 UNK         0.0716 
     76 H76        21.3748  -26.1897  -44.6851 H         1 UNK         0.0695 
     77 H77        22.7565  -25.7321  -43.7423 H         1 UNK         0.0695 
     78 H78        20.6184  -25.0578  -42.6716 H         1 UNK         0.0983 
     79 H79        19.8317  -27.7524  -43.1932 H         1 UNK         0.3095 
     80 H80        17.9297  -28.5993  -42.6180 H         1 UNK         0.0454 
     81 H81        17.3948  -28.3136  -40.1851 H         1 UNK         0.0851 
     82 H82        16.0073  -28.8336  -41.1254 H         1 UNK         0.0851 
     83 H83        16.1443  -27.1528  -40.6067 H         1 UNK         0.0851 
     84 H84        15.5404  -27.4676  -43.0977 H         1 UNK         0.2976 
     85 H85        22.5463  -24.3926  -41.5111 H         1 UNK         0.3116 
     86 H86        22.7935  -25.6494  -38.8521 H         1 UNK         0.0646 
     87 H87        22.4291  -23.1863  -39.0485 H         1 UNK         0.0847 
     88 H88        23.9207  -23.0280  -39.9775 H         1 UNK         0.0847 
     89 H89        23.9740  -23.5395  -38.2973 H         1 UNK         0.0847 
     90 H90        24.2899  -26.1364  -41.7760 H         1 UNK         0.3040 
     91 H91        27.0905  -26.2435  -40.9961 H         1 UNK         0.1015 
     92 H92        27.3472  -27.1444  -43.3193 H         1 UNK         0.0786 
     93 H93        26.3225  -25.7251  -43.3417 H         1 UNK         0.0786 
     94 H94        25.6042  -27.3288  -43.4661 H         1 UNK         0.0786 
     95 H95        28.2859  -28.3685  -41.5566 H         1 UNK         0.3172 
     96 H96        27.5574  -30.4733  -39.8018 H         1 UNK         0.0595 
     97 H97        29.5607  -30.4381  -42.1260 H         1 UNK         0.0839 
     98 H98        29.5028  -31.6440  -40.8491 H         1 UNK         0.0839 
     99 H99        29.9033  -29.9822  -40.4557 H         1 UNK         0.0839 
    100 H100       26.4341  -29.8342  -42.9700 H         1 UNK         0.2998 
    101 H101       25.6463  -32.5398  -43.7084 H         1 UNK         0.0822 
    102 H102       26.2440  -30.8522  -45.4332 H         1 UNK         0.0787 
    103 H103       24.5719  -31.3452  -45.6260 H         1 UNK         0.0787 
    104 H104       24.9439  -29.7949  -44.8844 H         1 UNK         0.0787 
    105 H105       24.4588  -30.5575  -41.3010 H         1 UNK         0.3055 
    106 H106       21.7167  -30.4505  -41.5503 H         1 UNK         0.1106 
    107 H107       22.9248  -29.3512  -39.7255 H         1 UNK         0.0828 
    108 H108       21.7268  -30.4163  -39.0236 H         1 UNK         0.0828 
    109 H109       23.4188  -30.9014  -39.0445 H         1 UNK         0.0828 
    110 H110       19.9721  -31.7338  -41.1106 H         1 UNK         0.2931 
    111 H111       20.3518  -34.5675  -41.4477 H         1 UNK         0.0412 
    112 H112       20.2804  -32.8349  -38.5018 H         1 UNK         0.3472 
    113 H113       19.6972  -34.1478  -37.5093 H         1 UNK         0.3472 
    114 H114       17.9168  -34.6666  -41.7654 H         1 UNK         0.0970 
    115 H115       17.7184  -33.0380  -41.1838 H         1 UNK         0.0970 
    116 H116       18.5348  -30.9637  -42.3147 H         1 UNK         0.0612 
    117 H117       17.0694  -31.3127  -43.1960 H         1 UNK         0.0612 
@<TRIPOS>BOND
     1    1    2 1    
     2    1   62 1    
     3    1   63 1    
     4    1   64 1    
     5    2    3 2    
     6    2    4 am   BACKBONE|DICT|INTERRES
     7    4    5 1    
     8    4   65 1    
     9    5    6 1    
    10    5   25 1    
    11    5   66 1    
    12    6    7 1    
    13    6   67 1    
    14    6   68 1    
    15    7    8 1    
    16    8    9 1    
    17    8   69 1    
    18    8   70 1    
    19    9   10 ar   
    20    9   14 ar   
    21   10   11 ar   
    22   10   71 1    
    23   11   12 ar   
    24   11   61 1    
    25   12   13 ar   
    26   12   72 1    
    27   13   14 ar   
    28   13   15 1    
    29   14   73 1    
    30   15   16 1    
    31   15   74 1    
    32   15   75 1    
    33   16   17 1    
    34   17   18 1    
    35   17   76 1    
    36   17   77 1    
    37   18   19 1    
    38   18   27 1    
    39   18   78 1    
    40   19   20 am   BACKBONE|DICT|INTERRES
    41   19   79 1    
    42   20   21 2    
    43   20   22 1    
    44   22   23 1    
    45   22   24 1    
    46   22   80 1    
    47   23   81 1    
    48   23   82 1    
    49   23   83 1    
    50   24   25 am   BACKBONE|DICT|INTERRES
    51   24   84 1    
    52   25   26 2    
    53   27   28 2    
    54   27   29 am   BACKBONE|DICT|INTERRES
    55   29   30 1    
    56   29   85 1    
    57   30   31 1    
    58   30   32 1    
    59   30   86 1    
    60   31   87 1    
    61   31   88 1    
    62   31   89 1    
    63   32   33 2    
    64   32   34 am   BACKBONE|DICT|INTERRES
    65   34   35 1    
    66   34   90 1    
    67   35   36 1    
    68   35   37 1    
    69   35   91 1    
    70   36   92 1    
    71   36   93 1    
    72   36   94 1    
    73   37   38 2    
    74   37   39 am   BACKBONE|DICT|INTERRES
    75   39   40 1    
    76   39   95 1    
    77   40   41 1    
    78   40   42 1    
    79   40   96 1    
    80   41   97 1    
    81   41   98 1    
    82   41   99 1    
    83   42   43 2    
    84   42   44 am   BACKBONE|DICT|INTERRES
    85   44   45 1    
    86   44  100 1    
    87   45   46 1    
    88   45   47 1    
    89   45  101 1    
    90   46  102 1    
    91   46  103 1    
    92   46  104 1    
    93   47   48 2    
    94   47   49 am   BACKBONE|DICT|INTERRES
    95   49   50 1    
    96   49  105 1    
    97   50   51 1    
    98   50   52 1    
    99   50  106 1    
   100   51  107 1    
   101   51  108 1    
   102   51  109 1    
   103   52   53 2    
   104   52   54 am   BACKBONE|DICT|INTERRES
   105   54   55 1    
   106   54  110 1    
   107   55   56 1    
   108   55   59 1    
   109   55  111 1    
   110   56   57 am   BACKBONE|DICT|INTERRES
   111   56   58 2    
   112   57  112 1    
   113   57  113 1    
   114   59   60 1    
   115   59  114 1    
   116   59  115 1    
   117   60   61 1    
   118   61  116 1    
   119   61  117 1    
@<TRIPOS>SUBSTRUCTURE
     1 UNK         1 GROUP             0       ****    0 ROOT    
