@<TRIPOS>MOLECULE
3R8
117   119    1
SMALL
USER_CHARGES


@<TRIPOS>ATOM
      1 CA         15.7453  -24.4911  -48.1918 C.3       0 UNK        -0.2013 
      2 C          16.6494  -25.2652  -47.2450 C.2       0 UNK         0.4866 
      3 O          17.6382  -25.8535  -47.6836 O.2       0 UNK        -0.5176 
      4 N          16.3334  -25.2576  -45.9440 N.am      1 UNK        -0.4884 
      5 CA         17.0418  -25.9740  -44.8726 C.3       1 UNK         0.0853 
      6 C6         16.1165  -26.2160  -43.6484 C.3       10 UNK        -0.0849 
      7 S7         14.7392  -27.3466  -44.0494 S.3       10 UNK        -0.2776 
      8 C8         14.9018  -28.6428  -42.7660 C.3       10 UNK         0.0316 
      9 C9         16.2614  -29.3413  -42.7331 C.ar      10 UNK        -0.0863 
     10 C10        16.8428  -29.6686  -41.5032 C.ar      10 UNK        -0.1009 
     11 C11        18.0933  -30.2940  -41.4342 C.ar      10 UNK        -0.0712 
     12 C12        18.7707  -30.5777  -42.6279 C.ar      10 UNK        -0.0894 
     13 C13        18.1855  -30.2950  -43.8643 C.ar      10 UNK        -0.0745 
     14 C14        16.9304  -29.6848  -43.9110 C.ar      10 UNK        -0.0972 
     15 C15        18.8879  -30.6690  -45.1580 C.3       10 UNK         0.0209 
     16 S16        19.6551  -29.2192  -45.9402 S.3       10 UNK        -0.2568 
     17 C17        21.3539  -29.2489  -45.2601 C.3       10 UNK        -0.0983 
     18 CA         21.7660  -27.9980  -44.4330 C.3       3 UNK         0.0876 
     19 N          21.1835  -26.7748  -44.9838 N.am      3 UNK        -0.4424 
     20 C          21.5062  -25.5102  -44.6913 C.2       2 UNK         0.4918 
     21 O          22.4360  -25.1903  -43.9513 O.2       2 UNK        -0.4875 
     22 CA         20.5752  -24.4330  -45.2821 C.3       2 UNK         0.0481 
     23 CB         21.1238  -23.9200  -46.6219 C.3       2 UNK        -0.1831 
     24 N          19.2017  -24.9240  -45.4712 N.am      2 UNK        -0.4498 
     25 C          18.3782  -25.2969  -44.4805 C.2       1 UNK         0.5027 
     26 O          18.6726  -25.1565  -43.2939 O.2       1 UNK        -0.4969 
     27 C          21.5324  -28.1878  -42.9161 C.2       3 UNK         0.5005 
     28 O          22.2066  -29.0286  -42.3213 O.2       3 UNK        -0.5279 
     29 N          20.6442  -27.3933  -42.2952 N.am      4 UNK        -0.4463 
     30 CA         20.4025  -27.3975  -40.8484 C.3       4 UNK         0.0283 
     31 CB         19.0699  -26.6977  -40.5398 C.3       4 UNK        -0.1875 
     32 C          21.5434  -26.7924  -40.0089 C.2       4 UNK         0.4949 
     33 O          21.4787  -26.8736  -38.7820 O.2       4 UNK        -0.5039 
     34 N          22.5509  -26.1893  -40.6597 N.am      5 UNK        -0.4663 
     35 CA         23.7300  -25.5926  -40.0276 C.3       5 UNK         0.0242 
     36 CB         24.6062  -24.9277  -41.1020 C.3       5 UNK        -0.1982 
     37 C          24.5492  -26.5912  -39.1898 C.2       5 UNK         0.5017 
     38 O          24.8656  -26.2836  -38.0400 O.2       5 UNK        -0.5012 
     39 N          24.8494  -27.7632  -39.7668 N.am      6 UNK        -0.4439 
     40 CA         25.5651  -28.8769  -39.1420 C.3       6 UNK         0.0297 
     41 CB         26.9946  -28.4683  -38.7212 C.3       6 UNK        -0.2006 
     42 C          25.6545  -30.0437  -40.1318 C.2       6 UNK         0.4892 
     43 O          25.7548  -29.8051  -41.3376 O.2       6 UNK        -0.5089 
     44 N          25.6868  -31.2689  -39.5855 N.am      7 UNK        -0.4243 
     45 CA         26.0150  -32.5692  -40.1973 C.3       7 UNK         0.0196 
     46 CB         27.4843  -32.5894  -40.6617 C.3       7 UNK        -0.2007 
     47 C          25.0952  -33.0681  -41.3278 C.2       7 UNK         0.5020 
     48 O          24.7481  -34.2499  -41.3441 O.2       7 UNK        -0.5147 
     49 N          24.7224  -32.1845  -42.2577 N.am      8 UNK        -0.4734 
     50 CA         23.9843  -32.4879  -43.4883 C.3       8 UNK         0.0238 
     51 CB         24.1195  -31.2985  -44.4517 C.3       8 UNK        -0.1912 
     52 C          22.5158  -32.9149  -43.2880 C.2       8 UNK         0.5038 
     53 O          21.8754  -33.3154  -44.2610 O.2       8 UNK        -0.5046 
     54 N          22.0180  -32.8656  -42.0459 N.am      9 UNK        -0.4200 
     55 CA         20.7522  -33.4846  -41.6207 C.3       9 UNK         0.0839 
     56 C          20.7732  -35.0415  -41.6473 C.2       9 UNK         0.5513 
     57 N          21.9331  -35.6911  -41.6477 N.am      9 UNK        -0.7519 
     58 O          19.7172  -35.6680  -41.6652 O.2       9 UNK        -0.4960 
     59 C59        20.2859  -32.9866  -40.2249 C.3       10 UNK        -0.0876 
     60 S60        20.3955  -31.1798  -39.9800 S.3       10 UNK        -0.2414 
     61 C61        18.6496  -30.6380  -40.0482 C.3       10 UNK         0.0169 
     62 H62        15.3343  -25.1602  -48.9472 H         1 UNK         0.0903 
     63 H63        14.9139  -24.0197  -47.6682 H         1 UNK         0.0903 
     64 H64        16.3130  -23.7117  -48.6993 H         1 UNK         0.0903 
     65 H65        15.5173  -24.7429  -45.6440 H         1 UNK         0.3096 
     66 H66        17.3259  -26.9555  -45.2600 H         1 UNK         0.1121 
     67 H67        16.6756  -26.6418  -42.8148 H         1 UNK         0.0849 
     68 H68        15.7073  -25.2734  -43.2809 H         1 UNK         0.0849 
     69 H69        14.6856  -28.1892  -41.7974 H         1 UNK         0.0865 
     70 H70        14.1297  -29.3955  -42.9304 H         1 UNK         0.0865 
     71 H71        16.3190  -29.4322  -40.5867 H         1 UNK         0.1346 
     72 H72        19.7532  -31.0226  -42.6107 H         1 UNK         0.1412 
     73 H73        16.4809  -29.4666  -44.8702 H         1 UNK         0.1426 
     74 H74        18.1571  -31.0883  -45.8512 H         1 UNK         0.0716 
     75 H75        19.6265  -31.4554  -44.9938 H         1 UNK         0.0716 
     76 H76        21.5038  -30.1689  -44.6938 H         1 UNK         0.0695 
     77 H77        22.0231  -29.3334  -46.1176 H         1 UNK         0.0695 
     78 H78        22.8487  -27.8916  -44.5320 H         1 UNK         0.0983 
     79 H79        20.4044  -26.9318  -45.6078 H         1 UNK         0.3095 
     80 H80        20.5438  -23.5976  -44.5799 H         1 UNK         0.0454 
     81 H81        22.1372  -23.5331  -46.5058 H         1 UNK         0.0851 
     82 H82        21.1598  -24.7091  -47.3741 H         1 UNK         0.0851 
     83 H83        20.5120  -23.1085  -47.0162 H         1 UNK         0.0851 
     84 H84        18.8862  -25.0927  -46.4231 H         1 UNK         0.2976 
     85 H85        20.1294  -26.7063  -42.8325 H         1 UNK         0.3116 
     86 H86        20.3101  -28.4346  -40.5367 H         1 UNK         0.0646 
     87 H87        18.8086  -26.8045  -39.4863 H         1 UNK         0.0847 
     88 H88        18.2531  -27.1275  -41.1175 H         1 UNK         0.0847 
     89 H89        19.1152  -25.6299  -40.7548 H         1 UNK         0.0847 
     90 H90        22.5027  -26.1403  -41.6686 H         1 UNK         0.3040 
     91 H91        23.3754  -24.8137  -39.3490 H         1 UNK         0.1015 
     92 H92        24.0614  -24.1422  -41.6266 H         1 UNK         0.0786 
     93 H93        24.9522  -25.6463  -41.8461 H         1 UNK         0.0786 
     94 H94        25.4889  -24.4668  -40.6564 H         1 UNK         0.0786 
     95 H95        24.5406  -27.9436  -40.7149 H         1 UNK         0.3172 
     96 H96        25.0001  -29.1968  -38.2642 H         1 UNK         0.0595 
     97 H97        27.5605  -29.3285  -38.3603 H         1 UNK         0.0839 
     98 H98        26.9926  -27.7376  -37.9133 H         1 UNK         0.0839 
     99 H99        27.5511  -28.0425  -39.5571 H         1 UNK         0.0839 
    100 H100       25.5496  -31.3153  -38.5848 H         1 UNK         0.2998 
    101 H101       25.9219  -33.2986  -39.3907 H         1 UNK         0.0822 
    102 H102       28.1630  -32.3602  -39.8401 H         1 UNK         0.0787 
    103 H103       27.7605  -33.5731  -41.0443 H         1 UNK         0.0787 
    104 H104       27.6681  -31.8681  -41.4588 H         1 UNK         0.0787 
    105 H105       25.0424  -31.2242  -42.1324 H         1 UNK         0.3055 
    106 H106       24.4741  -33.3447  -43.9561 H         1 UNK         0.1106 
    107 H107       23.7761  -30.3726  -43.9930 H         1 UNK         0.0828 
    108 H108       25.1579  -31.1517  -44.7489 H         1 UNK         0.0828 
    109 H109       23.5444  -31.4566  -45.3650 H         1 UNK         0.0828 
    110 H110       22.6035  -32.4942  -41.3134 H         1 UNK         0.2931 
    111 H111       19.9922  -33.1931  -42.3460 H         1 UNK         0.0412 
    112 H112       22.8107  -35.1867  -41.6108 H         1 UNK         0.3472 
    113 H113       21.9339  -36.6988  -41.6656 H         1 UNK         0.3472 
    114 H114       19.2639  -33.3179  -40.0324 H         1 UNK         0.0970 
    115 H115       20.8952  -33.4448  -39.4433 H         1 UNK         0.0970 
    116 H116       18.5649  -29.7515  -39.4182 H         1 UNK         0.0612 
    117 H117       18.0152  -31.3948  -39.5857 H         1 UNK         0.0612 
@<TRIPOS>BOND
     1    1    2 1    
     2    1   62 1    
     3    1   63 1    
     4    1   64 1    
     5    2    3 2    
     6    2    4 am   BACKBONE|DICT|INTERRES
     7    4    5 1    
     8    4   65 1    
     9    5    6 1    
    10    5   25 1    
    11    5   66 1    
    12    6    7 1    
    13    6   67 1    
    14    6   68 1    
    15    7    8 1    
    16    8    9 1    
    17    8   69 1    
    18    8   70 1    
    19    9   10 ar   
    20    9   14 ar   
    21   10   11 ar   
    22   10   71 1    
    23   11   12 ar   
    24   11   61 1    
    25   12   13 ar   
    26   12   72 1    
    27   13   14 ar   
    28   13   15 1    
    29   14   73 1    
    30   15   16 1    
    31   15   74 1    
    32   15   75 1    
    33   16   17 1    
    34   17   18 1    
    35   17   76 1    
    36   17   77 1    
    37   18   19 1    
    38   18   27 1    
    39   18   78 1    
    40   19   20 am   BACKBONE|DICT|INTERRES
    41   19   79 1    
    42   20   21 2    
    43   20   22 1    
    44   22   23 1    
    45   22   24 1    
    46   22   80 1    
    47   23   81 1    
    48   23   82 1    
    49   23   83 1    
    50   24   25 am   BACKBONE|DICT|INTERRES
    51   24   84 1    
    52   25   26 2    
    53   27   28 2    
    54   27   29 am   BACKBONE|DICT|INTERRES
    55   29   30 1    
    56   29   85 1    
    57   30   31 1    
    58   30   32 1    
    59   30   86 1    
    60   31   87 1    
    61   31   88 1    
    62   31   89 1    
    63   32   33 2    
    64   32   34 am   BACKBONE|DICT|INTERRES
    65   34   35 1    
    66   34   90 1    
    67   35   36 1    
    68   35   37 1    
    69   35   91 1    
    70   36   92 1    
    71   36   93 1    
    72   36   94 1    
    73   37   38 2    
    74   37   39 am   BACKBONE|DICT|INTERRES
    75   39   40 1    
    76   39   95 1    
    77   40   41 1    
    78   40   42 1    
    79   40   96 1    
    80   41   97 1    
    81   41   98 1    
    82   41   99 1    
    83   42   43 2    
    84   42   44 am   BACKBONE|DICT|INTERRES
    85   44   45 1    
    86   44  100 1    
    87   45   46 1    
    88   45   47 1    
    89   45  101 1    
    90   46  102 1    
    91   46  103 1    
    92   46  104 1    
    93   47   48 2    
    94   47   49 am   BACKBONE|DICT|INTERRES
    95   49   50 1    
    96   49  105 1    
    97   50   51 1    
    98   50   52 1    
    99   50  106 1    
   100   51  107 1    
   101   51  108 1    
   102   51  109 1    
   103   52   53 2    
   104   52   54 am   BACKBONE|DICT|INTERRES
   105   54   55 1    
   106   54  110 1    
   107   55   56 1    
   108   55   59 1    
   109   55  111 1    
   110   56   57 am   BACKBONE|DICT|INTERRES
   111   56   58 2    
   112   57  112 1    
   113   57  113 1    
   114   59   60 1    
   115   59  114 1    
   116   59  115 1    
   117   60   61 1    
   118   61  116 1    
   119   61  117 1    
@<TRIPOS>SUBSTRUCTURE
     1 UNK         1 GROUP             0       ****    0 ROOT    
