@<TRIPOS>MOLECULE
3R8
117   119    1
SMALL
USER_CHARGES


@<TRIPOS>ATOM
      1 CA         14.7530  -24.0331  -44.9736 C.3       0 UNK        -0.2013 
      2 C          14.6485  -24.1587  -46.4922 C.2       0 UNK         0.4866 
      3 O          13.8821  -23.4089  -47.0946 O.2       0 UNK        -0.5176 
      4 N          15.3535  -25.0777  -47.1720 N.am      1 UNK        -0.4884 
      5 CA         16.3773  -26.0338  -46.7204 C.3       1 UNK         0.0853 
      6 C6         15.9489  -26.8936  -45.5007 C.3       10 UNK        -0.0849 
      7 S7         16.7076  -28.5538  -45.4804 S.3       10 UNK        -0.2776 
      8 C8         15.8937  -29.2998  -44.0246 C.3       10 UNK         0.0316 
      9 C9         16.7528  -29.1811  -42.7721 C.ar      10 UNK        -0.0863 
     10 C10        17.3606  -30.3121  -42.2174 C.ar      10 UNK        -0.1009 
     11 C11        18.1698  -30.2009  -41.0811 C.ar      10 UNK        -0.0712 
     12 C12        18.3974  -28.9398  -40.5183 C.ar      10 UNK        -0.0894 
     13 C13        17.7996  -27.8013  -41.0689 C.ar      10 UNK        -0.0745 
     14 C14        16.9471  -27.9380  -42.1665 C.ar      10 UNK        -0.0972 
     15 C15        18.1018  -26.4122  -40.5227 C.3       10 UNK         0.0209 
     16 S16        18.8460  -25.3352  -41.7998 S.3       10 UNK        -0.2568 
     17 C17        20.4814  -26.1088  -42.0268 C.3       10 UNK        -0.0983 
     18 CA         20.5003  -27.2054  -43.1275 C.3       3 UNK         0.0876 
     19 N          20.1391  -26.7407  -44.4760 N.am      3 UNK        -0.4424 
     20 C          20.7690  -25.8515  -45.2553 C.2       2 UNK         0.4918 
     21 O          21.7918  -25.2529  -44.9220 O.2       2 UNK        -0.4875 
     22 CA         20.2124  -25.6444  -46.6754 C.3       2 UNK         0.0481 
     23 CB         21.0925  -26.3854  -47.6956 C.3       2 UNK        -0.1831 
     24 N          18.8259  -26.0999  -46.8237 N.am      2 UNK        -0.4498 
     25 C          17.7525  -25.3582  -46.5207 C.2       1 UNK         0.5027 
     26 O          17.8265  -24.2004  -46.1039 O.2       1 UNK        -0.4969 
     27 C          21.8105  -28.0141  -43.0486 C.2       3 UNK         0.5005 
     28 O          21.8927  -28.8979  -42.2004 O.2       3 UNK        -0.5279 
     29 N          22.8157  -27.7143  -43.8848 N.am      4 UNK        -0.4463 
     30 CA         24.1190  -28.3908  -43.9722 C.3       4 UNK         0.0283 
     31 CB         23.9442  -29.7771  -44.6220 C.3       4 UNK        -0.1875 
     32 C          24.8323  -28.4404  -42.6037 C.2       4 UNK         0.4949 
     33 O          25.1357  -29.5171  -42.0806 O.2       4 UNK        -0.5039 
     34 N          24.9795  -27.2462  -42.0099 N.am      5 UNK        -0.4663 
     35 CA         25.4905  -26.9624  -40.6600 C.3       5 UNK         0.0242 
     36 CB         26.9578  -27.4235  -40.5222 C.3       5 UNK        -0.1982 
     37 C          24.6103  -27.5034  -39.5121 C.2       5 UNK         0.5017 
     38 O          25.0461  -27.4600  -38.3611 O.2       5 UNK        -0.5012 
     39 N          23.4060  -28.0063  -39.8336 N.am      6 UNK        -0.4439 
     40 CA         22.4734  -28.7223  -38.9546 C.3       6 UNK         0.0297 
     41 CB         21.9055  -27.7941  -37.8605 C.3       6 UNK        -0.2006 
     42 C          23.0805  -30.0273  -38.4002 C.2       6 UNK         0.4892 
     43 O          22.7648  -30.4210  -37.2756 O.2       6 UNK        -0.5089 
     44 N          23.9548  -30.6599  -39.1957 N.am      7 UNK        -0.4243 
     45 CA         24.7078  -31.8552  -38.8246 C.3       7 UNK         0.0196 
     46 CB         26.1207  -31.4568  -38.3638 C.3       7 UNK        -0.2007 
     47 C          24.7626  -32.8521  -39.9844 C.2       7 UNK         0.5020 
     48 O          24.4296  -34.0211  -39.7890 O.2       7 UNK        -0.5147 
     49 N          25.1583  -32.3873  -41.1789 N.am      8 UNK        -0.4734 
     50 CA         25.2877  -33.2325  -42.3728 C.3       8 UNK         0.0238 
     51 CB         26.3044  -32.6005  -43.3369 C.3       8 UNK        -0.1912 
     52 C          23.9443  -33.5391  -43.0633 C.2       8 UNK         0.5038 
     53 O          23.9158  -34.3625  -43.9789 O.2       8 UNK        -0.5046 
     54 N          22.8603  -32.9005  -42.6048 N.am      9 UNK        -0.4200 
     55 CA         21.4713  -33.1863  -42.9898 C.3       9 UNK         0.0839 
     56 C          20.9193  -34.5544  -42.4881 C.2       9 UNK         0.5513 
     57 N          21.5762  -35.2409  -41.5592 N.am      9 UNK        -0.7519 
     58 O          19.8789  -35.0039  -42.9614 O.2       9 UNK        -0.4960 
     59 C59        20.5323  -32.0115  -42.6116 C.3       10 UNK        -0.0876 
     60 S60        20.5552  -31.6083  -40.8266 S.3       10 UNK        -0.2414 
     61 C61        18.7839  -31.4445  -40.4508 C.3       10 UNK         0.0169 
     62 H62        14.1850  -24.8242  -44.4856 H         1 UNK         0.0903 
     63 H63        15.7812  -24.0675  -44.6213 H         1 UNK         0.0903 
     64 H64        14.3364  -23.0807  -44.6464 H         1 UNK         0.0903 
     65 H65        15.2240  -25.0832  -48.1747 H         1 UNK         0.3096 
     66 H66        16.4841  -26.7066  -47.5737 H         1 UNK         0.1121 
     67 H67        14.8678  -27.0417  -45.5162 H         1 UNK         0.0849 
     68 H68        16.1741  -26.3799  -44.5687 H         1 UNK         0.0849 
     69 H69        14.9206  -28.8383  -43.8509 H         1 UNK         0.0865 
     70 H70        15.6917  -30.3491  -44.2451 H         1 UNK         0.0865 
     71 H71        17.1994  -31.2826  -42.6665 H         1 UNK         0.1346 
     72 H72        19.0499  -28.8480  -39.6608 H         1 UNK         0.1412 
     73 H73        16.4737  -27.0571  -42.5702 H         1 UNK         0.1426 
     74 H74        18.7652  -26.4635  -39.6579 H         1 UNK         0.0716 
     75 H75        17.1730  -25.9585  -40.1746 H         1 UNK         0.0716 
     76 H76        20.7925  -26.5205  -41.0641 H         1 UNK         0.0695 
     77 H77        21.2004  -25.3218  -42.2592 H         1 UNK         0.0695 
     78 H78        19.7293  -27.9351  -42.8853 H         1 UNK         0.0983 
     79 H79        19.3188  -27.1844  -44.8628 H         1 UNK         0.3095 
     80 H80        20.2678  -24.5767  -46.8983 H         1 UNK         0.0454 
     81 H81        21.0947  -27.4627  -47.5247 H         1 UNK         0.0851 
     82 H82        22.1277  -26.0454  -47.6394 H         1 UNK         0.0851 
     83 H83        20.7525  -26.2077  -48.7160 H         1 UNK         0.0851 
     84 H84        18.6901  -27.0423  -47.1639 H         1 UNK         0.2976 
     85 H85        22.6822  -26.9045  -44.4840 H         1 UNK         0.3116 
     86 H86        24.7417  -27.7883  -44.6351 H         1 UNK         0.0646 
     87 H87        23.3546  -29.7155  -45.5364 H         1 UNK         0.0847 
     88 H88        24.9095  -30.1985  -44.8970 H         1 UNK         0.0847 
     89 H89        23.4465  -30.4792  -43.9532 H         1 UNK         0.0847 
     90 H90        24.6574  -26.4362  -42.5229 H         1 UNK         0.3040 
     91 H91        25.4762  -25.8764  -40.5540 H         1 UNK         0.1015 
     92 H92        27.0452  -28.5104  -40.5285 H         1 UNK         0.0786 
     93 H93        27.3933  -27.0715  -39.5863 H         1 UNK         0.0786 
     94 H94        27.5751  -27.0321  -41.3307 H         1 UNK         0.0786 
     95 H95        23.1591  -28.0508  -40.8167 H         1 UNK         0.3172 
     96 H96        21.6361  -29.0263  -39.5826 H         1 UNK         0.0595 
     97 H97        22.6690  -27.4999  -37.1401 H         1 UNK         0.0839 
     98 H98        21.1098  -28.2905  -37.3039 H         1 UNK         0.0839 
     99 H99        21.4806  -26.8875  -38.2912 H         1 UNK         0.0839 
    100 H100       24.1373  -30.2674  -40.1111 H         1 UNK         0.2998 
    101 H101       24.2094  -32.3640  -37.9963 H         1 UNK         0.0822 
    102 H102       26.7102  -32.3366  -38.1021 H         1 UNK         0.0787 
    103 H103       26.6634  -30.9155  -39.1399 H         1 UNK         0.0787 
    104 H104       26.0805  -30.8183  -37.4810 H         1 UNK         0.0787 
    105 H105       25.3828  -31.4042  -41.2997 H         1 UNK         0.3055 
    106 H106       25.6924  -34.2008  -42.0685 H         1 UNK         0.1106 
    107 H107       26.3673  -33.1575  -44.2728 H         1 UNK         0.0828 
    108 H108       26.0469  -31.5730  -43.5807 H         1 UNK         0.0828 
    109 H109       27.3032  -32.5925  -42.9004 H         1 UNK         0.0828 
    110 H110       22.9748  -32.2440  -41.8471 H         1 UNK         0.2931 
    111 H111       21.4619  -33.2530  -44.0794 H         1 UNK         0.0412 
    112 H112       21.2091  -36.1262  -41.2476 H         1 UNK         0.3472 
    113 H113       22.4221  -34.8726  -41.1498 H         1 UNK         0.3472 
    114 H114       20.8268  -31.1171  -43.1611 H         1 UNK         0.0970 
    115 H115       19.5125  -32.2247  -42.9351 H         1 UNK         0.0970 
    116 H116       18.2602  -32.3458  -40.7734 H         1 UNK         0.0612 
    117 H117       18.6624  -31.3939  -39.3679 H         1 UNK         0.0612 
@<TRIPOS>BOND
     1    1    2 1    
     2    1   62 1    
     3    1   63 1    
     4    1   64 1    
     5    2    3 2    
     6    2    4 am   BACKBONE|DICT|INTERRES
     7    4    5 1    
     8    4   65 1    
     9    5    6 1    
    10    5   25 1    
    11    5   66 1    
    12    6    7 1    
    13    6   67 1    
    14    6   68 1    
    15    7    8 1    
    16    8    9 1    
    17    8   69 1    
    18    8   70 1    
    19    9   10 ar   
    20    9   14 ar   
    21   10   11 ar   
    22   10   71 1    
    23   11   12 ar   
    24   11   61 1    
    25   12   13 ar   
    26   12   72 1    
    27   13   14 ar   
    28   13   15 1    
    29   14   73 1    
    30   15   16 1    
    31   15   74 1    
    32   15   75 1    
    33   16   17 1    
    34   17   18 1    
    35   17   76 1    
    36   17   77 1    
    37   18   19 1    
    38   18   27 1    
    39   18   78 1    
    40   19   20 am   BACKBONE|DICT|INTERRES
    41   19   79 1    
    42   20   21 2    
    43   20   22 1    
    44   22   23 1    
    45   22   24 1    
    46   22   80 1    
    47   23   81 1    
    48   23   82 1    
    49   23   83 1    
    50   24   25 am   BACKBONE|DICT|INTERRES
    51   24   84 1    
    52   25   26 2    
    53   27   28 2    
    54   27   29 am   BACKBONE|DICT|INTERRES
    55   29   30 1    
    56   29   85 1    
    57   30   31 1    
    58   30   32 1    
    59   30   86 1    
    60   31   87 1    
    61   31   88 1    
    62   31   89 1    
    63   32   33 2    
    64   32   34 am   BACKBONE|DICT|INTERRES
    65   34   35 1    
    66   34   90 1    
    67   35   36 1    
    68   35   37 1    
    69   35   91 1    
    70   36   92 1    
    71   36   93 1    
    72   36   94 1    
    73   37   38 2    
    74   37   39 am   BACKBONE|DICT|INTERRES
    75   39   40 1    
    76   39   95 1    
    77   40   41 1    
    78   40   42 1    
    79   40   96 1    
    80   41   97 1    
    81   41   98 1    
    82   41   99 1    
    83   42   43 2    
    84   42   44 am   BACKBONE|DICT|INTERRES
    85   44   45 1    
    86   44  100 1    
    87   45   46 1    
    88   45   47 1    
    89   45  101 1    
    90   46  102 1    
    91   46  103 1    
    92   46  104 1    
    93   47   48 2    
    94   47   49 am   BACKBONE|DICT|INTERRES
    95   49   50 1    
    96   49  105 1    
    97   50   51 1    
    98   50   52 1    
    99   50  106 1    
   100   51  107 1    
   101   51  108 1    
   102   51  109 1    
   103   52   53 2    
   104   52   54 am   BACKBONE|DICT|INTERRES
   105   54   55 1    
   106   54  110 1    
   107   55   56 1    
   108   55   59 1    
   109   55  111 1    
   110   56   57 am   BACKBONE|DICT|INTERRES
   111   56   58 2    
   112   57  112 1    
   113   57  113 1    
   114   59   60 1    
   115   59  114 1    
   116   59  115 1    
   117   60   61 1    
   118   61  116 1    
   119   61  117 1    
@<TRIPOS>SUBSTRUCTURE
     1 UNK         1 GROUP             0       ****    0 ROOT    
