@<TRIPOS>MOLECULE
3R8
117   119    1
SMALL
USER_CHARGES


@<TRIPOS>ATOM
      1 CA         13.9418  -24.1319  -44.8729 C.3       0 UNK        -0.2013 
      2 C          15.0741  -25.1367  -45.0203 C.2       0 UNK         0.4866 
      3 O          16.2325  -24.7403  -45.1566 O.2       0 UNK        -0.5176 
      4 N          14.7545  -26.4372  -44.9885 N.am      1 UNK        -0.4884 
      5 CA         15.7125  -27.5452  -45.0824 C.3       1 UNK         0.0853 
      6 C6         15.0472  -28.8256  -45.6687 C.3       10 UNK        -0.0849 
      7 S7         16.0670  -29.6292  -46.9482 S.3       10 UNK        -0.2776 
      8 C8         17.0826  -30.7943  -45.9766 C.3       10 UNK         0.0316 
      9 C9         18.3388  -30.1596  -45.3851 C.ar      10 UNK        -0.0863 
     10 C10        18.6914  -30.4131  -44.0551 C.ar      10 UNK        -0.1009 
     11 C11        19.8671  -29.8790  -43.5095 C.ar      10 UNK        -0.0712 
     12 C12        20.7038  -29.1141  -44.3247 C.ar      10 UNK        -0.0894 
     13 C13        20.3546  -28.8283  -45.6467 C.ar      10 UNK        -0.0745 
     14 C14        19.1748  -29.3603  -46.1721 C.ar      10 UNK        -0.0972 
     15 C15        21.2557  -27.9639  -46.5171 C.3       10 UNK         0.0209 
     16 S16        21.0170  -26.1855  -46.1902 S.3       10 UNK        -0.2568 
     17 C17        22.0780  -25.9349  -44.7256 C.3       10 UNK        -0.0983 
     18 CA         21.3246  -25.4272  -43.4673 C.3       3 UNK         0.0876 
     19 N          20.1061  -26.1904  -43.1745 N.am      3 UNK        -0.4424 
     20 C          19.2041  -25.8574  -42.2422 C.2       2 UNK         0.4918 
     21 O          19.2636  -24.8265  -41.5690 O.2       2 UNK        -0.4875 
     22 CA         18.0145  -26.8117  -42.0826 C.3       2 UNK         0.0481 
     23 CB         17.0927  -26.4317  -40.9043 C.3       2 UNK        -0.1831 
     24 N          17.2682  -26.8322  -43.3366 N.am      2 UNK        -0.4498 
     25 C          16.3859  -27.7652  -43.7092 C.2       1 UNK         0.5027 
     26 O          16.0627  -28.7199  -43.0001 O.2       1 UNK        -0.4969 
     27 C          22.2858  -25.4394  -42.2608 C.2       3 UNK         0.5005 
     28 O          22.3948  -26.4639  -41.5802 O.2       3 UNK        -0.5279 
     29 N          23.0187  -24.3334  -42.0635 N.am      4 UNK        -0.4463 
     30 CA         23.9936  -24.1388  -40.9794 C.3       4 UNK         0.0283 
     31 CB         24.5226  -22.6961  -41.0297 C.3       4 UNK        -0.1875 
     32 C          25.1671  -25.1391  -40.9752 C.2       4 UNK         0.4949 
     33 O          25.7965  -25.3244  -39.9338 O.2       4 UNK        -0.5039 
     34 N          25.4267  -25.7784  -42.1242 N.am      5 UNK        -0.4663 
     35 CA         26.3888  -26.8707  -42.2842 C.3       5 UNK         0.0242 
     36 CB         26.6086  -27.1210  -43.7854 C.3       5 UNK        -0.1982 
     37 C          25.9714  -28.1785  -41.5816 C.2       5 UNK         0.5017 
     38 O          26.8425  -29.0134  -41.3344 O.2       5 UNK        -0.5012 
     39 N          24.6710  -28.3372  -41.2788 N.am      6 UNK        -0.4439 
     40 CA         24.0430  -29.5101  -40.6628 C.3       6 UNK         0.0297 
     41 CB         24.4674  -29.6468  -39.1828 C.3       6 UNK        -0.2006 
     42 C          24.2554  -30.7785  -41.5132 C.2       6 UNK         0.4892 
     43 O          23.7987  -30.8036  -42.6572 O.2       6 UNK        -0.5089 
     44 N          24.9130  -31.8014  -40.9453 N.am      7 UNK        -0.4243 
     45 CA         25.2679  -33.1104  -41.5175 C.3       7 UNK         0.0196 
     46 CB         26.1460  -32.9676  -42.7769 C.3       7 UNK        -0.2007 
     47 C          24.0592  -34.0264  -41.7709 C.2       7 UNK         0.5020 
     48 O          24.0296  -35.1460  -41.2608 O.2       7 UNK        -0.5147 
     49 N          23.0686  -33.5271  -42.5176 N.am      8 UNK        -0.4734 
     50 CA         21.7715  -34.1751  -42.7403 C.3       8 UNK         0.0238 
     51 CB         21.1610  -33.6238  -44.0403 C.3       8 UNK        -0.1912 
     52 C          20.7979  -33.9825  -41.5604 C.2       8 UNK         0.5038 
     53 O          19.7547  -34.6363  -41.5292 O.2       8 UNK        -0.5046 
     54 N          21.1496  -33.0851  -40.6334 N.am      9 UNK        -0.4200 
     55 CA         20.3790  -32.6919  -39.4512 C.3       9 UNK         0.0839 
     56 C          21.1951  -33.0267  -38.1798 C.2       9 UNK         0.5513 
     57 N          20.5464  -33.5199  -37.1348 N.am      9 UNK        -0.7519 
     58 O          22.4038  -32.8065  -38.1230 O.2       9 UNK        -0.4960 
     59 C59        20.0287  -31.1796  -39.4845 C.3       10 UNK        -0.0876 
     60 S60        19.0119  -30.7208  -40.9291 S.3       10 UNK        -0.2414 
     61 C61        20.3075  -30.1221  -42.0669 C.3       10 UNK         0.0169 
     62 H62        13.8983  -23.4855  -45.7491 H         1 UNK         0.0903 
     63 H63        12.9736  -24.6202  -44.7635 H         1 UNK         0.0903 
     64 H64        14.1075  -23.5066  -43.9961 H         1 UNK         0.0903 
     65 H65        13.7915  -26.7042  -44.8377 H         1 UNK         0.3096 
     66 H66        16.5039  -27.2352  -45.7698 H         1 UNK         0.1121 
     67 H67        14.1142  -28.5633  -46.1702 H         1 UNK         0.0849 
     68 H68        14.7512  -29.5535  -44.9117 H         1 UNK         0.0849 
     69 H69        17.3930  -31.6093  -46.6317 H         1 UNK         0.0865 
     70 H70        16.4679  -31.2486  -45.1979 H         1 UNK         0.0865 
     71 H71        18.0444  -31.0329  -43.4510 H         1 UNK         0.1346 
     72 H72        21.6315  -28.7380  -43.9169 H         1 UNK         0.1412 
     73 H73        18.9113  -29.1610  -47.2020 H         1 UNK         0.1426 
     74 H74        21.0438  -28.1494  -47.5712 H         1 UNK         0.0716 
     75 H75        22.3013  -28.2398  -46.3721 H         1 UNK         0.0716 
     76 H76        22.8434  -25.2102  -45.0094 H         1 UNK         0.0695 
     77 H77        22.6244  -26.8541  -44.5121 H         1 UNK         0.0695 
     78 H78        21.0138  -24.3959  -43.6493 H         1 UNK         0.0983 
     79 H79        19.9750  -27.0410  -43.7038 H         1 UNK         0.3095 
     80 H80        18.4201  -27.8072  -41.8966 H         1 UNK         0.0454 
     81 H81        16.6164  -25.4635  -41.0624 H         1 UNK         0.0851 
     82 H82        17.6560  -26.3728  -39.9723 H         1 UNK         0.0851 
     83 H83        16.3065  -27.1713  -40.7549 H         1 UNK         0.0851 
     84 H84        17.4113  -26.0399  -43.9556 H         1 UNK         0.2976 
     85 H85        22.8821  -23.5465  -42.6828 H         1 UNK         0.3116 
     86 H86        23.4596  -24.2729  -40.0364 H         1 UNK         0.0646 
     87 H87        25.0450  -22.4893  -41.9647 H         1 UNK         0.0847 
     88 H88        25.2260  -22.5091  -40.2169 H         1 UNK         0.0847 
     89 H89        23.7151  -21.9711  -40.9265 H         1 UNK         0.0847 
     90 H90        24.8702  -25.5412  -42.9316 H         1 UNK         0.3040 
     91 H91        27.3371  -26.5552  -41.8431 H         1 UNK         0.1015 
     92 H92        26.9775  -26.2269  -44.2884 H         1 UNK         0.0786 
     93 H93        25.6887  -27.4330  -44.2820 H         1 UNK         0.0786 
     94 H94        27.3472  -27.9079  -43.9457 H         1 UNK         0.0786 
     95 H95        24.0269  -27.5880  -41.5187 H         1 UNK         0.3172 
     96 H96        22.9702  -29.3153  -40.6741 H         1 UNK         0.0595 
     97 H97        25.5377  -29.8233  -39.0706 H         1 UNK         0.0839 
     98 H98        23.9382  -30.4648  -38.6918 H         1 UNK         0.0839 
     99 H99        24.2284  -28.7397  -38.6273 H         1 UNK         0.0839 
    100 H100       25.2193  -31.6648  -39.9917 H         1 UNK         0.2998 
    101 H101       25.8763  -33.6038  -40.7574 H         1 UNK         0.0822 
    102 H102       27.0330  -32.3675  -42.5731 H         1 UNK         0.0787 
    103 H103       26.4867  -33.9436  -43.1247 H         1 UNK         0.0787 
    104 H104       25.6104  -32.5000  -43.6035 H         1 UNK         0.0787 
    105 H105       23.1864  -32.5788  -42.8692 H         1 UNK         0.3055 
    106 H106       21.9260  -35.2499  -42.8601 H         1 UNK         0.1106 
    107 H107       20.1946  -34.0856  -44.2478 H         1 UNK         0.0828 
    108 H108       21.0015  -32.5466  -43.9883 H         1 UNK         0.0828 
    109 H109       21.8048  -33.8249  -44.8966 H         1 UNK         0.0828 
    110 H110       22.0662  -32.6713  -40.7059 H         1 UNK         0.2931 
    111 H111       19.4455  -33.2576  -39.4166 H         1 UNK         0.0412 
    112 H112       19.5532  -33.6929  -37.1703 H         1 UNK         0.3472 
    113 H113       21.0611  -33.7299  -36.2935 H         1 UNK         0.3472 
    114 H114       19.4642  -30.9075  -38.5906 H         1 UNK         0.0970 
    115 H115       20.9319  -30.5664  -39.4643 H         1 UNK         0.0970 
    116 H116       21.1278  -30.8370  -42.0883 H         1 UNK         0.0612 
    117 H117       20.7115  -29.1958  -41.6549 H         1 UNK         0.0612 
@<TRIPOS>BOND
     1    1    2 1    
     2    1   62 1    
     3    1   63 1    
     4    1   64 1    
     5    2    3 2    
     6    2    4 am   BACKBONE|DICT|INTERRES
     7    4    5 1    
     8    4   65 1    
     9    5    6 1    
    10    5   25 1    
    11    5   66 1    
    12    6    7 1    
    13    6   67 1    
    14    6   68 1    
    15    7    8 1    
    16    8    9 1    
    17    8   69 1    
    18    8   70 1    
    19    9   10 ar   
    20    9   14 ar   
    21   10   11 ar   
    22   10   71 1    
    23   11   12 ar   
    24   11   61 1    
    25   12   13 ar   
    26   12   72 1    
    27   13   14 ar   
    28   13   15 1    
    29   14   73 1    
    30   15   16 1    
    31   15   74 1    
    32   15   75 1    
    33   16   17 1    
    34   17   18 1    
    35   17   76 1    
    36   17   77 1    
    37   18   19 1    
    38   18   27 1    
    39   18   78 1    
    40   19   20 am   BACKBONE|DICT|INTERRES
    41   19   79 1    
    42   20   21 2    
    43   20   22 1    
    44   22   23 1    
    45   22   24 1    
    46   22   80 1    
    47   23   81 1    
    48   23   82 1    
    49   23   83 1    
    50   24   25 am   BACKBONE|DICT|INTERRES
    51   24   84 1    
    52   25   26 2    
    53   27   28 2    
    54   27   29 am   BACKBONE|DICT|INTERRES
    55   29   30 1    
    56   29   85 1    
    57   30   31 1    
    58   30   32 1    
    59   30   86 1    
    60   31   87 1    
    61   31   88 1    
    62   31   89 1    
    63   32   33 2    
    64   32   34 am   BACKBONE|DICT|INTERRES
    65   34   35 1    
    66   34   90 1    
    67   35   36 1    
    68   35   37 1    
    69   35   91 1    
    70   36   92 1    
    71   36   93 1    
    72   36   94 1    
    73   37   38 2    
    74   37   39 am   BACKBONE|DICT|INTERRES
    75   39   40 1    
    76   39   95 1    
    77   40   41 1    
    78   40   42 1    
    79   40   96 1    
    80   41   97 1    
    81   41   98 1    
    82   41   99 1    
    83   42   43 2    
    84   42   44 am   BACKBONE|DICT|INTERRES
    85   44   45 1    
    86   44  100 1    
    87   45   46 1    
    88   45   47 1    
    89   45  101 1    
    90   46  102 1    
    91   46  103 1    
    92   46  104 1    
    93   47   48 2    
    94   47   49 am   BACKBONE|DICT|INTERRES
    95   49   50 1    
    96   49  105 1    
    97   50   51 1    
    98   50   52 1    
    99   50  106 1    
   100   51  107 1    
   101   51  108 1    
   102   51  109 1    
   103   52   53 2    
   104   52   54 am   BACKBONE|DICT|INTERRES
   105   54   55 1    
   106   54  110 1    
   107   55   56 1    
   108   55   59 1    
   109   55  111 1    
   110   56   57 am   BACKBONE|DICT|INTERRES
   111   56   58 2    
   112   57  112 1    
   113   57  113 1    
   114   59   60 1    
   115   59  114 1    
   116   59  115 1    
   117   60   61 1    
   118   61  116 1    
   119   61  117 1    
@<TRIPOS>SUBSTRUCTURE
     1 UNK         1 GROUP             0       ****    0 ROOT    
