@<TRIPOS>MOLECULE
3R8
117   119    1
SMALL
USER_CHARGES


@<TRIPOS>ATOM
      1 CA         18.6557  -21.7262  -45.4834 C.3       0 UNK        -0.2013 
      2 C          18.0713  -23.1308  -45.4690 C.2       0 UNK         0.4866 
      3 O          17.0860  -23.3931  -46.1593 O.2       0 UNK        -0.5176 
      4 N          18.6707  -24.0361  -44.6908 N.am      1 UNK        -0.4884 
      5 CA         18.2748  -25.4353  -44.5550 C.3       1 UNK         0.0853 
      6 C6         16.9657  -25.5918  -43.7170 C.3       10 UNK        -0.0849 
      7 S7         16.7659  -27.1171  -42.7321 S.3       10 UNK        -0.2776 
      8 C8         16.1009  -28.2982  -43.9632 C.3       10 UNK         0.0316 
      9 C9         16.6194  -29.7181  -43.7380 C.ar      10 UNK        -0.0863 
     10 C10        17.0016  -30.5223  -44.8204 C.ar      10 UNK        -0.1009 
     11 C11        17.5071  -31.8128  -44.6081 C.ar      10 UNK        -0.0712 
     12 C12        17.6399  -32.2897  -43.3011 C.ar      10 UNK        -0.0894 
     13 C13        17.2779  -31.4914  -42.2146 C.ar      10 UNK        -0.0745 
     14 C14        16.7280  -30.2309  -42.4422 C.ar      10 UNK        -0.0972 
     15 C15        17.5148  -31.9728  -40.7939 C.3       10 UNK         0.0209 
     16 S16        19.1616  -31.4613  -40.2033 S.3       10 UNK        -0.2568 
     17 C17        18.8873  -29.7238  -39.7070 C.3       10 UNK        -0.0983 
     18 CA         19.9603  -28.7647  -40.2829 C.3       3 UNK         0.0876 
     19 N          19.8983  -28.6354  -41.7469 N.am      3 UNK        -0.4424 
     20 C          20.9794  -28.5680  -42.5372 C.2       2 UNK         0.4918 
     21 O          22.1361  -28.6766  -42.1364 O.2       2 UNK        -0.4875 
     22 CA         20.7578  -28.3339  -44.0395 C.3       2 UNK         0.0481 
     23 CB         20.5895  -29.6749  -44.7486 C.3       2 UNK        -0.1831 
     24 N          19.6225  -27.4760  -44.3734 N.am      2 UNK        -0.4498 
     25 C          19.5075  -26.1902  -44.0226 C.2       1 UNK         0.5027 
     26 O          20.3215  -25.6080  -43.3007 O.2       1 UNK        -0.4969 
     27 C          19.9290  -27.3913  -39.5755 C.2       3 UNK         0.5005 
     28 O          20.1326  -27.3491  -38.3606 O.2       3 UNK        -0.5279 
     29 N          19.7118  -26.2917  -40.3174 N.am      4 UNK        -0.4463 
     30 CA         20.0230  -24.9349  -39.8498 C.3       4 UNK         0.0283 
     31 CB         19.2031  -23.8933  -40.6293 C.3       4 UNK        -0.1875 
     32 C          21.5366  -24.6718  -39.9673 C.2       4 UNK         0.4949 
     33 O          22.1170  -24.0359  -39.0869 O.2       4 UNK        -0.5039 
     34 N          22.1502  -25.2207  -41.0259 N.am      5 UNK        -0.4663 
     35 CA         23.5917  -25.4249  -41.1722 C.3       5 UNK         0.0242 
     36 CB         23.9024  -25.6060  -42.6707 C.3       5 UNK        -0.1982 
     37 C          24.0778  -26.6289  -40.3327 C.2       5 UNK         0.5017 
     38 O          23.3135  -27.2031  -39.5534 O.2       5 UNK        -0.5012 
     39 N          25.3514  -27.0068  -40.5007 N.am      6 UNK        -0.4439 
     40 CA         26.0315  -28.0753  -39.7570 C.3       6 UNK         0.0297 
     41 CB         27.5517  -27.8341  -39.8333 C.3       6 UNK        -0.2006 
     42 C          25.6356  -29.5070  -40.1916 C.2       6 UNK         0.4892 
     43 O          26.5190  -30.3246  -40.4560 O.2       6 UNK        -0.5089 
     44 N          24.3238  -29.7860  -40.2374 N.am      7 UNK        -0.4243 
     45 CA         23.6793  -31.0716  -40.5481 C.3       7 UNK         0.0196 
     46 CB         23.8894  -32.0693  -39.3903 C.3       7 UNK        -0.2007 
     47 C          24.1051  -31.6424  -41.9149 C.2       7 UNK         0.5020 
     48 O          24.5255  -32.7974  -42.0054 O.2       7 UNK        -0.5147 
     49 N          24.0016  -30.8117  -42.9610 N.am      8 UNK        -0.4734 
     50 CA         24.5178  -31.0931  -44.3088 C.3       8 UNK         0.0238 
     51 CB         24.4687  -29.8100  -45.1558 C.3       8 UNK        -0.1912 
     52 C          23.8511  -32.2769  -45.0412 C.2       8 UNK         0.5038 
     53 O          24.4563  -32.8167  -45.9684 O.2       8 UNK        -0.5046 
     54 N          22.6458  -32.6718  -44.6101 N.am      9 UNK        -0.4200 
     55 CA         21.9485  -33.8891  -45.0572 C.3       9 UNK         0.0839 
     56 C          22.4597  -35.1891  -44.3662 C.2       9 UNK         0.5513 
     57 N          23.3352  -35.1307  -43.3686 N.am      9 UNK        -0.7519 
     58 O          22.0580  -36.2830  -44.7545 O.2       9 UNK        -0.4960 
     59 C59        20.4068  -33.7496  -44.9233 C.3       10 UNK        -0.0876 
     60 S60        19.6961  -32.6020  -46.1526 S.3       10 UNK        -0.2414 
     61 C61        17.9112  -32.6941  -45.7848 C.3       10 UNK         0.0169 
     62 H62        19.5180  -21.6366  -44.8228 H         1 UNK         0.0903 
     63 H63        18.9719  -21.4614  -46.4920 H         1 UNK         0.0903 
     64 H64        17.9056  -21.0047  -45.1606 H         1 UNK         0.0903 
     65 H65        19.5072  -23.8033  -44.1678 H         1 UNK         0.3096 
     66 H66        18.0848  -25.8238  -45.5583 H         1 UNK         0.1121 
     67 H67        16.0958  -25.4680  -44.3640 H         1 UNK         0.0849 
     68 H68        16.9000  -24.7740  -42.9969 H         1 UNK         0.0849 
     69 H69        15.0116  -28.2996  -43.9068 H         1 UNK         0.0865 
     70 H70        16.3592  -27.9616  -44.9681 H         1 UNK         0.0865 
     71 H71        16.9120  -30.1454  -45.8303 H         1 UNK         0.1346 
     72 H72        18.0382  -33.2786  -43.1250 H         1 UNK         0.1412 
     73 H73        16.4134  -29.6300  -41.6016 H         1 UNK         0.1426 
     74 H74        17.4497  -33.0611  -40.7553 H         1 UNK         0.0716 
     75 H75        16.7419  -31.5972  -40.1216 H         1 UNK         0.0716 
     76 H76        18.9108  -29.7136  -38.6155 H         1 UNK         0.0695 
     77 H77        17.8877  -29.3903  -39.9801 H         1 UNK         0.0695 
     78 H78        20.9300  -29.1870  -40.0104 H         1 UNK         0.0983 
     79 H79        18.9787  -28.5756  -42.1623 H         1 UNK         0.3095 
     80 H80        21.6551  -27.8517  -44.4328 H         1 UNK         0.0454 
     81 H81        19.7210  -30.2108  -44.3716 H         1 UNK         0.0851 
     82 H82        21.4508  -30.3135  -44.5773 H         1 UNK         0.0851 
     83 H83        20.4810  -29.5565  -45.8267 H         1 UNK         0.0851 
     84 H84        18.9020  -27.8927  -44.9443 H         1 UNK         0.2976 
     85 H85        19.5575  -26.4013  -41.3099 H         1 UNK         0.3116 
     86 H86        19.7462  -24.8501  -38.7967 H         1 UNK         0.0646 
     87 H87        18.1367  -24.1157  -40.5898 H         1 UNK         0.0847 
     88 H88        19.4951  -23.8327  -41.6762 H         1 UNK         0.0847 
     89 H89        19.3428  -22.8996  -40.2023 H         1 UNK         0.0847 
     90 H90        21.5700  -25.6620  -41.7300 H         1 UNK         0.3040 
     91 H91        24.1090  -24.5345  -40.8085 H         1 UNK         0.1015 
     92 H92        24.9758  -25.6203  -42.8611 H         1 UNK         0.0786 
     93 H93        23.4879  -24.7882  -43.2609 H         1 UNK         0.0786 
     94 H94        23.4878  -26.5361  -43.0604 H         1 UNK         0.0786 
     95 H95        25.9102  -26.5170  -41.1845 H         1 UNK         0.3172 
     96 H96        25.7456  -27.9861  -38.7067 H         1 UNK         0.0595 
     97 H97        27.9226  -27.9164  -40.8557 H         1 UNK         0.0839 
     98 H98        28.0956  -28.5624  -39.2299 H         1 UNK         0.0839 
     99 H99        27.8184  -26.8466  -39.4562 H         1 UNK         0.0839 
    100 H100       23.6939  -29.0100  -40.0462 H         1 UNK         0.2998 
    101 H101       22.6086  -30.8771  -40.6191 H         1 UNK         0.0822 
    102 H102       23.5337  -31.6593  -38.4451 H         1 UNK         0.0787 
    103 H103       23.3406  -32.9950  -39.5680 H         1 UNK         0.0787 
    104 H104       24.9410  -32.3317  -39.2684 H         1 UNK         0.0787 
    105 H105       23.6032  -29.8928  -42.7913 H         1 UNK         0.3055 
    106 H106       25.5685  -31.3678  -44.1903 H         1 UNK         0.1106 
    107 H107       23.4518  -29.4533  -45.3084 H         1 UNK         0.0828 
    108 H108       24.9024  -29.9788  -46.1426 H         1 UNK         0.0828 
    109 H109       25.0381  -29.0058  -44.6894 H         1 UNK         0.0828 
    110 H110       22.2416  -32.1885  -43.8234 H         1 UNK         0.2931 
    111 H111       22.1677  -34.0287  -46.1177 H         1 UNK         0.0412 
    112 H112       23.6501  -35.9900  -42.9469 H         1 UNK         0.3472 
    113 H113       23.6959  -34.2462  -43.0245 H         1 UNK         0.3472 
    114 H114       19.9120  -34.7130  -45.0625 H         1 UNK         0.0970 
    115 H115       20.1529  -33.4159  -43.9175 H         1 UNK         0.0970 
    116 H116       17.6271  -33.7304  -45.5953 H         1 UNK         0.0612 
    117 H117       17.3608  -32.3900  -46.6763 H         1 UNK         0.0612 
@<TRIPOS>BOND
     1    1    2 1    
     2    1   62 1    
     3    1   63 1    
     4    1   64 1    
     5    2    3 2    
     6    2    4 am   BACKBONE|DICT|INTERRES
     7    4    5 1    
     8    4   65 1    
     9    5    6 1    
    10    5   25 1    
    11    5   66 1    
    12    6    7 1    
    13    6   67 1    
    14    6   68 1    
    15    7    8 1    
    16    8    9 1    
    17    8   69 1    
    18    8   70 1    
    19    9   10 ar   
    20    9   14 ar   
    21   10   11 ar   
    22   10   71 1    
    23   11   12 ar   
    24   11   61 1    
    25   12   13 ar   
    26   12   72 1    
    27   13   14 ar   
    28   13   15 1    
    29   14   73 1    
    30   15   16 1    
    31   15   74 1    
    32   15   75 1    
    33   16   17 1    
    34   17   18 1    
    35   17   76 1    
    36   17   77 1    
    37   18   19 1    
    38   18   27 1    
    39   18   78 1    
    40   19   20 am   BACKBONE|DICT|INTERRES
    41   19   79 1    
    42   20   21 2    
    43   20   22 1    
    44   22   23 1    
    45   22   24 1    
    46   22   80 1    
    47   23   81 1    
    48   23   82 1    
    49   23   83 1    
    50   24   25 am   BACKBONE|DICT|INTERRES
    51   24   84 1    
    52   25   26 2    
    53   27   28 2    
    54   27   29 am   BACKBONE|DICT|INTERRES
    55   29   30 1    
    56   29   85 1    
    57   30   31 1    
    58   30   32 1    
    59   30   86 1    
    60   31   87 1    
    61   31   88 1    
    62   31   89 1    
    63   32   33 2    
    64   32   34 am   BACKBONE|DICT|INTERRES
    65   34   35 1    
    66   34   90 1    
    67   35   36 1    
    68   35   37 1    
    69   35   91 1    
    70   36   92 1    
    71   36   93 1    
    72   36   94 1    
    73   37   38 2    
    74   37   39 am   BACKBONE|DICT|INTERRES
    75   39   40 1    
    76   39   95 1    
    77   40   41 1    
    78   40   42 1    
    79   40   96 1    
    80   41   97 1    
    81   41   98 1    
    82   41   99 1    
    83   42   43 2    
    84   42   44 am   BACKBONE|DICT|INTERRES
    85   44   45 1    
    86   44  100 1    
    87   45   46 1    
    88   45   47 1    
    89   45  101 1    
    90   46  102 1    
    91   46  103 1    
    92   46  104 1    
    93   47   48 2    
    94   47   49 am   BACKBONE|DICT|INTERRES
    95   49   50 1    
    96   49  105 1    
    97   50   51 1    
    98   50   52 1    
    99   50  106 1    
   100   51  107 1    
   101   51  108 1    
   102   51  109 1    
   103   52   53 2    
   104   52   54 am   BACKBONE|DICT|INTERRES
   105   54   55 1    
   106   54  110 1    
   107   55   56 1    
   108   55   59 1    
   109   55  111 1    
   110   56   57 am   BACKBONE|DICT|INTERRES
   111   56   58 2    
   112   57  112 1    
   113   57  113 1    
   114   59   60 1    
   115   59  114 1    
   116   59  115 1    
   117   60   61 1    
   118   61  116 1    
   119   61  117 1    
@<TRIPOS>SUBSTRUCTURE
     1 UNK         1 GROUP             0       ****    0 ROOT    
