@<TRIPOS>MOLECULE
3R8
117   119    1
SMALL
USER_CHARGES


@<TRIPOS>ATOM
      1 CA         20.6406  -23.7388  -48.4922 C.3       0 UNK        -0.2013 
      2 C          19.3032  -23.3568  -47.8631 C.2       0 UNK         0.4866 
      3 O          18.5435  -22.6103  -48.4778 O.2       0 UNK        -0.5176 
      4 N          18.9654  -23.8235  -46.6561 N.am      1 UNK        -0.4884 
      5 CA         19.7221  -24.7124  -45.7728 C.3       1 UNK         0.0853 
      6 C6         19.8166  -26.1818  -46.2884 C.3       10 UNK        -0.0849 
      7 S7         18.2010  -26.9628  -46.6401 S.3       10 UNK        -0.2776 
      8 C8         18.6966  -28.6426  -47.1636 C.3       10 UNK         0.0316 
      9 C9         18.4355  -29.7516  -46.1405 C.ar      10 UNK        -0.0863 
     10 C10        19.2250  -30.9065  -46.1812 C.ar      10 UNK        -0.1009 
     11 C11        18.9621  -31.9881  -45.3341 C.ar      10 UNK        -0.0712 
     12 C12        17.9077  -31.9047  -44.4219 C.ar      10 UNK        -0.0894 
     13 C13        17.1093  -30.7596  -44.3633 C.ar      10 UNK        -0.0745 
     14 C14        17.3745  -29.6904  -45.2263 C.ar      10 UNK        -0.0972 
     15 C15        15.9225  -30.7061  -43.4103 C.3       10 UNK         0.0209 
     16 S16        16.0989  -29.4163  -42.1394 S.3       10 UNK        -0.2568 
     17 C17        17.4915  -30.0393  -41.1346 C.3       10 UNK        -0.0983 
     18 CA         18.8361  -29.3464  -41.4704 C.3       3 UNK         0.0876 
     19 N          18.7189  -27.8847  -41.5166 N.am      3 UNK        -0.4424 
     20 C          19.6763  -27.0590  -41.9505 C.2       2 UNK         0.4918 
     21 O          20.8123  -27.4166  -42.2760 O.2       2 UNK        -0.4875 
     22 CA         19.2940  -25.5842  -42.0872 C.3       2 UNK         0.0481 
     23 CB         19.9148  -24.7393  -40.9630 C.3       2 UNK        -0.1831 
     24 N          19.8150  -25.1729  -43.3841 N.am      2 UNK        -0.4498 
     25 C          19.0883  -24.6441  -44.3717 C.2       1 UNK         0.5027 
     26 O          17.9611  -24.1608  -44.2228 O.2       1 UNK        -0.4969 
     27 C          19.9450  -29.8035  -40.5041 C.2       3 UNK         0.5005 
     28 O          20.7118  -30.7068  -40.8356 O.2       3 UNK        -0.5279 
     29 N          20.0331  -29.1368  -39.3472 N.am      4 UNK        -0.4463 
     30 CA         21.1203  -29.2779  -38.3842 C.3       4 UNK         0.0283 
     31 CB         20.5574  -29.0947  -36.9657 C.3       4 UNK        -0.1875 
     32 C          22.2014  -28.2253  -38.6657 C.2       4 UNK         0.4949 
     33 O          21.8901  -27.1419  -39.1660 O.2       4 UNK        -0.5039 
     34 N          23.4456  -28.5574  -38.3004 N.am      5 UNK        -0.4663 
     35 CA         24.6670  -27.7408  -38.3568 C.3       5 UNK         0.0242 
     36 CB         24.5504  -26.4900  -37.4624 C.3       5 UNK        -0.1982 
     37 C          25.1466  -27.3683  -39.7715 C.2       5 UNK         0.5017 
     38 O          26.3026  -27.6436  -40.0929 O.2       5 UNK        -0.5012 
     39 N          24.2802  -26.7389  -40.5767 N.am      6 UNK        -0.4439 
     40 CA         24.5940  -26.2838  -41.9332 C.3       6 UNK         0.0297 
     41 CB         23.6120  -25.1892  -42.3801 C.3       6 UNK        -0.2006 
     42 C          24.6375  -27.4591  -42.9191 C.2       6 UNK         0.4892 
     43 O          25.6967  -27.7270  -43.4878 O.2       6 UNK        -0.5089 
     44 N          23.5033  -28.1562  -43.0832 N.am      7 UNK        -0.4243 
     45 CA         23.4306  -29.3990  -43.8565 C.3       7 UNK         0.0196 
     46 CB         21.9810  -29.6554  -44.2942 C.3       7 UNK        -0.2007 
     47 C          23.9815  -30.5958  -43.0620 C.2       7 UNK         0.5020 
     48 O          24.5642  -31.4982  -43.6632 O.2       7 UNK        -0.5147 
     49 N          23.8016  -30.5619  -41.7308 N.am      8 UNK        -0.4734 
     50 CA         24.2132  -31.5719  -40.7450 C.3       8 UNK         0.0238 
     51 CB         25.7512  -31.6299  -40.6323 C.3       8 UNK        -0.1912 
     52 C          23.5671  -32.9504  -40.9938 C.2       8 UNK         0.5038 
     53 O          24.2282  -33.9825  -40.8614 O.2       8 UNK        -0.5046 
     54 N          22.2800  -32.9268  -41.3516 N.am      9 UNK        -0.4200 
     55 CA         21.4422  -34.0960  -41.6448 C.3       9 UNK         0.0839 
     56 C          20.7516  -34.6956  -40.3875 C.2       9 UNK         0.5513 
     57 N          20.7860  -34.0432  -39.2312 N.am      9 UNK        -0.7519 
     58 O          20.1816  -35.7810  -40.4615 O.2       9 UNK        -0.4960 
     59 C59        20.4014  -33.7652  -42.7453 C.3       10 UNK        -0.0876 
     60 S60        21.1956  -33.2997  -44.3205 S.3       10 UNK        -0.2414 
     61 C61        19.7749  -33.2703  -45.4532 C.3       10 UNK         0.0169 
     62 H62        21.4388  -23.8309  -47.7582 H         1 UNK         0.0903 
     63 H63        20.5477  -24.6809  -49.0313 H         1 UNK         0.0903 
     64 H64        20.9487  -22.9769  -49.2079 H         1 UNK         0.0903 
     65 H65        18.0823  -23.5443  -46.2441 H         1 UNK         0.3096 
     66 H66        20.7299  -24.3069  -45.6650 H         1 UNK         0.1121 
     67 H67        20.4140  -26.2185  -47.1989 H         1 UNK         0.0849 
     68 H68        20.3521  -26.8081  -45.5727 H         1 UNK         0.0849 
     69 H69        19.7497  -28.6353  -47.4488 H         1 UNK         0.0865 
     70 H70        18.1420  -28.8892  -48.0698 H         1 UNK         0.0865 
     71 H71        20.0305  -30.9802  -46.8992 H         1 UNK         0.1346 
     72 H72        17.6910  -32.7454  -43.7776 H         1 UNK         0.1412 
     73 H73        16.7326  -28.8211  -45.1944 H         1 UNK         0.1426 
     74 H74        15.7637  -31.6693  -42.9226 H         1 UNK         0.0716 
     75 H75        15.0183  -30.5055  -43.9867 H         1 UNK         0.0716 
     76 H76        17.5777  -31.1199  -41.2638 H         1 UNK         0.0695 
     77 H77        17.2291  -29.8801  -40.0868 H         1 UNK         0.0695 
     78 H78        19.1333  -29.6702  -42.4705 H         1 UNK         0.0983 
     79 H79        17.8043  -27.5124  -41.3053 H         1 UNK         0.3095 
     80 H80        18.2067  -25.4856  -42.0534 H         1 UNK         0.0454 
     81 H81        19.4971  -25.0182  -39.9951 H         1 UNK         0.0851 
     82 H82        19.7163  -23.6778  -41.1099 H         1 UNK         0.0851 
     83 H83        20.9940  -24.8723  -40.8935 H         1 UNK         0.0851 
     84 H84        20.7084  -25.5902  -43.6078 H         1 UNK         0.2976 
     85 H85        19.4133  -28.3521  -39.2064 H         1 UNK         0.3116 
     86 H86        21.5588  -30.2753  -38.4602 H         1 UNK         0.0646 
     87 H87        19.7831  -29.8308  -36.7488 H         1 UNK         0.0847 
     88 H88        20.1255  -28.1028  -36.8258 H         1 UNK         0.0847 
     89 H89        21.3386  -29.2175  -36.2144 H         1 UNK         0.0847 
     90 H90        23.5781  -29.4735  -37.8942 H         1 UNK         0.3040 
     91 H91        25.4519  -28.3658  -37.9266 H         1 UNK         0.1015 
     92 H92        25.4911  -25.9379  -37.4418 H         1 UNK         0.0786 
     93 H93        24.3122  -26.7603  -36.4337 H         1 UNK         0.0786 
     94 H94        23.7808  -25.8019  -37.8135 H         1 UNK         0.0786 
     95 H95        23.3305  -26.6124  -40.2314 H         1 UNK         0.3172 
     96 H96        25.5887  -25.8326  -41.9148 H         1 UNK         0.0595 
     97 H97        23.8711  -24.8178  -43.3724 H         1 UNK         0.0839 
     98 H98        23.6322  -24.3372  -41.7004 H         1 UNK         0.0839 
     99 H99        22.5892  -25.5534  -42.4282 H         1 UNK         0.0839 
    100 H100       22.6486  -27.8536  -42.6220 H         1 UNK         0.2998 
    101 H101       24.0363  -29.2861  -44.7585 H         1 UNK         0.0822 
    102 H102       21.9332  -30.4994  -44.9819 H         1 UNK         0.0787 
    103 H103       21.5574  -28.7948  -44.8105 H         1 UNK         0.0787 
    104 H104       21.3363  -29.8904  -43.4476 H         1 UNK         0.0787 
    105 H105       23.2693  -29.7854  -41.3656 H         1 UNK         0.3055 
    106 H106       23.8281  -31.2360  -39.7818 H         1 UNK         0.1106 
    107 H107       26.1714  -30.6437  -40.4339 H         1 UNK         0.0828 
    108 H108       26.0597  -32.2837  -39.8158 H         1 UNK         0.0828 
    109 H109       26.2096  -32.0120  -41.5449 H         1 UNK         0.0828 
    110 H110       21.7943  -32.0314  -41.3633 H         1 UNK         0.2931 
    111 H111       22.0869  -34.8866  -42.0339 H         1 UNK         0.0412 
    112 H112       21.2320  -33.1423  -39.1711 H         1 UNK         0.3472 
    113 H113       20.3397  -34.4449  -38.4217 H         1 UNK         0.3472 
    114 H114       19.7542  -32.9488  -42.4202 H         1 UNK         0.0970 
    115 H115       19.7534  -34.6238  -42.9318 H         1 UNK         0.0970 
    116 H116       20.1473  -33.3750  -46.4733 H         1 UNK         0.0612 
    117 H117       19.1416  -34.1407  -45.2754 H         1 UNK         0.0612 
@<TRIPOS>BOND
     1    1    2 1    
     2    1   62 1    
     3    1   63 1    
     4    1   64 1    
     5    2    3 2    
     6    2    4 am   BACKBONE|DICT|INTERRES
     7    4    5 1    
     8    4   65 1    
     9    5    6 1    
    10    5   25 1    
    11    5   66 1    
    12    6    7 1    
    13    6   67 1    
    14    6   68 1    
    15    7    8 1    
    16    8    9 1    
    17    8   69 1    
    18    8   70 1    
    19    9   10 ar   
    20    9   14 ar   
    21   10   11 ar   
    22   10   71 1    
    23   11   12 ar   
    24   11   61 1    
    25   12   13 ar   
    26   12   72 1    
    27   13   14 ar   
    28   13   15 1    
    29   14   73 1    
    30   15   16 1    
    31   15   74 1    
    32   15   75 1    
    33   16   17 1    
    34   17   18 1    
    35   17   76 1    
    36   17   77 1    
    37   18   19 1    
    38   18   27 1    
    39   18   78 1    
    40   19   20 am   BACKBONE|DICT|INTERRES
    41   19   79 1    
    42   20   21 2    
    43   20   22 1    
    44   22   23 1    
    45   22   24 1    
    46   22   80 1    
    47   23   81 1    
    48   23   82 1    
    49   23   83 1    
    50   24   25 am   BACKBONE|DICT|INTERRES
    51   24   84 1    
    52   25   26 2    
    53   27   28 2    
    54   27   29 am   BACKBONE|DICT|INTERRES
    55   29   30 1    
    56   29   85 1    
    57   30   31 1    
    58   30   32 1    
    59   30   86 1    
    60   31   87 1    
    61   31   88 1    
    62   31   89 1    
    63   32   33 2    
    64   32   34 am   BACKBONE|DICT|INTERRES
    65   34   35 1    
    66   34   90 1    
    67   35   36 1    
    68   35   37 1    
    69   35   91 1    
    70   36   92 1    
    71   36   93 1    
    72   36   94 1    
    73   37   38 2    
    74   37   39 am   BACKBONE|DICT|INTERRES
    75   39   40 1    
    76   39   95 1    
    77   40   41 1    
    78   40   42 1    
    79   40   96 1    
    80   41   97 1    
    81   41   98 1    
    82   41   99 1    
    83   42   43 2    
    84   42   44 am   BACKBONE|DICT|INTERRES
    85   44   45 1    
    86   44  100 1    
    87   45   46 1    
    88   45   47 1    
    89   45  101 1    
    90   46  102 1    
    91   46  103 1    
    92   46  104 1    
    93   47   48 2    
    94   47   49 am   BACKBONE|DICT|INTERRES
    95   49   50 1    
    96   49  105 1    
    97   50   51 1    
    98   50   52 1    
    99   50  106 1    
   100   51  107 1    
   101   51  108 1    
   102   51  109 1    
   103   52   53 2    
   104   52   54 am   BACKBONE|DICT|INTERRES
   105   54   55 1    
   106   54  110 1    
   107   55   56 1    
   108   55   59 1    
   109   55  111 1    
   110   56   57 am   BACKBONE|DICT|INTERRES
   111   56   58 2    
   112   57  112 1    
   113   57  113 1    
   114   59   60 1    
   115   59  114 1    
   116   59  115 1    
   117   60   61 1    
   118   61  116 1    
   119   61  117 1    
@<TRIPOS>SUBSTRUCTURE
     1 UNK         1 GROUP             0       ****    0 ROOT    
