@<TRIPOS>MOLECULE
3R8
117   119    1
SMALL
USER_CHARGES


@<TRIPOS>ATOM
      1 CA         16.8252  -22.6855  -46.6805 C.3       0 UNK        -0.2013 
      2 C          16.9195  -24.1590  -46.3130 C.2       0 UNK         0.4866 
      3 O          17.9633  -24.7754  -46.5240 O.2       0 UNK        -0.5176 
      4 N          15.8343  -24.7285  -45.7749 N.am      1 UNK        -0.4884 
      5 CA         15.7706  -26.1089  -45.2842 C.3       1 UNK         0.0853 
      6 C6         14.3243  -26.6561  -45.4062 C.3       10 UNK        -0.0849 
      7 S7         14.1267  -28.4629  -45.2004 S.3       10 UNK        -0.2776 
      8 C8         15.1305  -29.1604  -46.5540 C.3       10 UNK         0.0316 
      9 C9         16.5141  -29.5942  -46.0803 C.ar      10 UNK        -0.0863 
     10 C10        16.6427  -30.6546  -45.1770 C.ar      10 UNK        -0.1009 
     11 C11        17.9051  -31.1030  -44.7774 C.ar      10 UNK        -0.0712 
     12 C12        19.0484  -30.4797  -45.2856 C.ar      10 UNK        -0.0894 
     13 C13        18.9355  -29.4063  -46.1738 C.ar      10 UNK        -0.0745 
     14 C14        17.6673  -28.9758  -46.5755 C.ar      10 UNK        -0.0972 
     15 C15        20.1803  -28.7343  -46.7355 C.3       10 UNK         0.0209 
     16 S16        20.6545  -27.2592  -45.7777 S.3       10 UNK        -0.2568 
     17 C17        21.5033  -27.9929  -44.3389 C.3       10 UNK        -0.0983 
     18 CA         20.9140  -27.5314  -42.9799 C.3       3 UNK         0.0876 
     19 N          19.4844  -27.8414  -42.8810 N.am      3 UNK        -0.4424 
     20 C          18.6227  -27.3493  -41.9827 C.2       2 UNK         0.4918 
     21 O          18.9280  -26.5402  -41.1041 O.2       2 UNK        -0.4875 
     22 CA         17.1751  -27.8456  -42.1221 C.3       2 UNK         0.0481 
     23 CB         16.2709  -27.4327  -40.9419 C.3       2 UNK        -0.1831 
     24 N          16.5968  -27.4514  -43.4093 N.am      2 UNK        -0.4498 
     25 C          16.3438  -26.2107  -43.8520 C.2       1 UNK         0.5027 
     26 O          16.5278  -25.1880  -43.1859 O.2       1 UNK        -0.4969 
     27 C          21.7179  -28.1103  -41.7909 C.2       3 UNK         0.5005 
     28 O          22.5028  -29.0395  -41.9715 O.2       3 UNK        -0.5279 
     29 N          21.5084  -27.5689  -40.5841 N.am      4 UNK        -0.4463 
     30 CA         22.2128  -27.9632  -39.3579 C.3       4 UNK         0.0283 
     31 CB         21.5489  -27.2855  -38.1497 C.3       4 UNK        -0.1875 
     32 C          23.7229  -27.6571  -39.3894 C.2       4 UNK         0.4949 
     33 O          24.4935  -28.3426  -38.7155 O.2       4 UNK        -0.5039 
     34 N          24.1226  -26.6515  -40.1825 N.am      5 UNK        -0.4663 
     35 CA         25.5150  -26.2999  -40.4666 C.3       5 UNK         0.0242 
     36 CB         25.5519  -25.0491  -41.3593 C.3       5 UNK        -0.1982 
     37 C          26.2558  -27.4706  -41.1354 C.2       5 UNK         0.5017 
     38 O          25.7731  -27.9994  -42.1384 O.2       5 UNK        -0.5012 
     39 N          27.3876  -27.8701  -40.5387 N.am      6 UNK        -0.4439 
     40 CA         28.2132  -29.0338  -40.8944 C.3       6 UNK         0.0297 
     41 CB         28.8193  -28.8769  -42.3061 C.3       6 UNK        -0.2006 
     42 C          27.5071  -30.3959  -40.7059 C.2       6 UNK         0.4892 
     43 O          27.9941  -31.3976  -41.2323 O.2       6 UNK        -0.5089 
     44 N          26.3998  -30.4179  -39.9440 N.am      7 UNK        -0.4243 
     45 CA         25.5766  -31.5831  -39.5989 C.3       7 UNK         0.0196 
     46 CB         26.3472  -32.5331  -38.6569 C.3       7 UNK        -0.2007 
     47 C          24.9762  -32.3063  -40.8217 C.2       7 UNK         0.5020 
     48 O          24.8549  -33.5324  -40.8106 O.2       7 UNK        -0.5147 
     49 N          24.5837  -31.5413  -41.8508 N.am      8 UNK        -0.4734 
     50 CA         23.9031  -32.0559  -43.0469 C.3       8 UNK         0.0238 
     51 CB         24.1186  -31.0766  -44.2136 C.3       8 UNK        -0.1912 
     52 C          22.4042  -32.3439  -42.8182 C.2       8 UNK         0.5038 
     53 O          21.7628  -32.9266  -43.6932 O.2       8 UNK        -0.5046 
     54 N          21.8799  -31.9439  -41.6562 N.am      9 UNK        -0.4200 
     55 CA         20.5160  -32.1605  -41.1764 C.3       9 UNK         0.0839 
     56 C          20.4947  -32.2107  -39.6257 C.2       9 UNK         0.5513 
     57 N          19.3780  -32.6120  -39.0365 N.am      9 UNK        -0.7519 
     58 O          21.4696  -31.8787  -38.9524 O.2       9 UNK        -0.4960 
     59 C59        19.5315  -31.1088  -41.7577 C.3       10 UNK        -0.0876 
     60 S60        17.8782  -31.8024  -42.0861 S.3       10 UNK        -0.2414 
     61 C61        18.0284  -32.2906  -43.8329 C.3       10 UNK         0.0169 
     62 H62        17.5686  -22.1133  -46.1262 H         1 UNK         0.0903 
     63 H63        17.0158  -22.5513  -47.7450 H         1 UNK         0.0903 
     64 H64        15.8424  -22.2706  -46.4572 H         1 UNK         0.0903 
     65 H65        15.0213  -24.1591  -45.5859 H         1 UNK         0.3096 
     66 H66        16.4157  -26.7039  -45.9266 H         1 UNK         0.1121 
     67 H67        13.6702  -26.1591  -44.6872 H         1 UNK         0.0849 
     68 H68        13.9205  -26.4057  -46.3889 H         1 UNK         0.0849 
     69 H69        14.6123  -30.0332  -46.9542 H         1 UNK         0.0865 
     70 H70        15.1962  -28.4484  -47.3783 H         1 UNK         0.0865 
     71 H71        15.7562  -31.1445  -44.7966 H         1 UNK         0.1346 
     72 H72        20.0268  -30.8433  -45.0021 H         1 UNK         0.1412 
     73 H73        17.5859  -28.1658  -47.2882 H         1 UNK         0.1426 
     74 H74        19.9954  -28.4317  -47.7673 H         1 UNK         0.0716 
     75 H75        21.0154  -29.4356  -46.7750 H         1 UNK         0.0716 
     76 H76        22.5564  -27.7124  -44.4066 H         1 UNK         0.0695 
     77 H77        21.4794  -29.0804  -44.4160 H         1 UNK         0.0695 
     78 H78        21.0189  -26.4453  -42.9309 H         1 UNK         0.0983 
     79 H79        19.1281  -28.4609  -43.5945 H         1 UNK         0.3095 
     80 H80        17.2150  -28.9345  -42.1302 H         1 UNK         0.0454 
     81 H81        16.6614  -27.8236  -40.0017 H         1 UNK         0.0851 
     82 H82        15.2609  -27.8243  -41.0613 H         1 UNK         0.0851 
     83 H83        16.2007  -26.3500  -40.8350 H         1 UNK         0.0851 
     84 H84        16.3735  -28.2177  -44.0327 H         1 UNK         0.2976 
     85 H85        20.7704  -26.8753  -40.5005 H         1 UNK         0.3116 
     86 H86        22.1034  -29.0440  -39.2449 H         1 UNK         0.0646 
     87 H87        21.6069  -26.1982  -38.2135 H         1 UNK         0.0847 
     88 H88        20.4976  -27.5623  -38.0675 H         1 UNK         0.0847 
     89 H89        22.0348  -27.5843  -37.2198 H         1 UNK         0.0847 
     90 H90        23.4162  -26.1645  -40.7130 H         1 UNK         0.3040 
     91 H91        25.9976  -26.0615  -39.5163 H         1 UNK         0.1015 
     92 H92        26.5800  -24.7528  -41.5723 H         1 UNK         0.0786 
     93 H93        25.0648  -24.2012  -40.8773 H         1 UNK         0.0786 
     94 H94        25.0581  -25.2216  -42.3168 H         1 UNK         0.0786 
     95 H95        27.6876  -27.3710  -39.7116 H         1 UNK         0.3172 
     96 H96        29.0421  -29.0338  -40.1851 H         1 UNK         0.0595 
     97 H97        28.0612  -28.9596  -43.0855 H         1 UNK         0.0839 
     98 H98        29.5648  -29.6491  -42.5000 H         1 UNK         0.0839 
     99 H99        29.3168  -27.9141  -42.4214 H         1 UNK         0.0839 
    100 H100       26.0616  -29.5370  -39.5717 H         1 UNK         0.2998 
    101 H101       24.7241  -31.1925  -39.0405 H         1 UNK         0.0822 
    102 H102       25.6985  -33.3269  -38.2847 H         1 UNK         0.0787 
    103 H103       26.7353  -32.0014  -37.7882 H         1 UNK         0.0787 
    104 H104       27.1876  -33.0101  -39.1623 H         1 UNK         0.0787 
    105 H105       24.6896  -30.5356  -41.7896 H         1 UNK         0.3055 
    106 H106       24.3614  -33.0077  -43.3250 H         1 UNK         0.1106 
    107 H107       25.1775  -30.9766  -44.4522 H         1 UNK         0.0828 
    108 H108       23.6148  -31.4225  -45.1171 H         1 UNK         0.0828 
    109 H109       23.7364  -30.0822  -43.9873 H         1 UNK         0.0828 
    110 H110       22.4814  -31.4629  -41.0014 H         1 UNK         0.2931 
    111 H111       20.2283  -33.1575  -41.5164 H         1 UNK         0.0412 
    112 H112       18.5687  -32.8619  -39.5847 H         1 UNK         0.3472 
    113 H113       19.3371  -32.6499  -38.0300 H         1 UNK         0.3472 
    114 H114       19.4289  -30.2533  -41.0877 H         1 UNK         0.0970 
    115 H115       19.9224  -30.6944  -42.6848 H         1 UNK         0.0970 
    116 H116       18.9751  -32.8107  -43.9872 H         1 UNK         0.0612 
    117 H117       17.2457  -33.0161  -44.0590 H         1 UNK         0.0612 
@<TRIPOS>BOND
     1    1    2 1    
     2    1   62 1    
     3    1   63 1    
     4    1   64 1    
     5    2    3 2    
     6    2    4 am   BACKBONE|DICT|INTERRES
     7    4    5 1    
     8    4   65 1    
     9    5    6 1    
    10    5   25 1    
    11    5   66 1    
    12    6    7 1    
    13    6   67 1    
    14    6   68 1    
    15    7    8 1    
    16    8    9 1    
    17    8   69 1    
    18    8   70 1    
    19    9   10 ar   
    20    9   14 ar   
    21   10   11 ar   
    22   10   71 1    
    23   11   12 ar   
    24   11   61 1    
    25   12   13 ar   
    26   12   72 1    
    27   13   14 ar   
    28   13   15 1    
    29   14   73 1    
    30   15   16 1    
    31   15   74 1    
    32   15   75 1    
    33   16   17 1    
    34   17   18 1    
    35   17   76 1    
    36   17   77 1    
    37   18   19 1    
    38   18   27 1    
    39   18   78 1    
    40   19   20 am   BACKBONE|DICT|INTERRES
    41   19   79 1    
    42   20   21 2    
    43   20   22 1    
    44   22   23 1    
    45   22   24 1    
    46   22   80 1    
    47   23   81 1    
    48   23   82 1    
    49   23   83 1    
    50   24   25 am   BACKBONE|DICT|INTERRES
    51   24   84 1    
    52   25   26 2    
    53   27   28 2    
    54   27   29 am   BACKBONE|DICT|INTERRES
    55   29   30 1    
    56   29   85 1    
    57   30   31 1    
    58   30   32 1    
    59   30   86 1    
    60   31   87 1    
    61   31   88 1    
    62   31   89 1    
    63   32   33 2    
    64   32   34 am   BACKBONE|DICT|INTERRES
    65   34   35 1    
    66   34   90 1    
    67   35   36 1    
    68   35   37 1    
    69   35   91 1    
    70   36   92 1    
    71   36   93 1    
    72   36   94 1    
    73   37   38 2    
    74   37   39 am   BACKBONE|DICT|INTERRES
    75   39   40 1    
    76   39   95 1    
    77   40   41 1    
    78   40   42 1    
    79   40   96 1    
    80   41   97 1    
    81   41   98 1    
    82   41   99 1    
    83   42   43 2    
    84   42   44 am   BACKBONE|DICT|INTERRES
    85   44   45 1    
    86   44  100 1    
    87   45   46 1    
    88   45   47 1    
    89   45  101 1    
    90   46  102 1    
    91   46  103 1    
    92   46  104 1    
    93   47   48 2    
    94   47   49 am   BACKBONE|DICT|INTERRES
    95   49   50 1    
    96   49  105 1    
    97   50   51 1    
    98   50   52 1    
    99   50  106 1    
   100   51  107 1    
   101   51  108 1    
   102   51  109 1    
   103   52   53 2    
   104   52   54 am   BACKBONE|DICT|INTERRES
   105   54   55 1    
   106   54  110 1    
   107   55   56 1    
   108   55   59 1    
   109   55  111 1    
   110   56   57 am   BACKBONE|DICT|INTERRES
   111   56   58 2    
   112   57  112 1    
   113   57  113 1    
   114   59   60 1    
   115   59  114 1    
   116   59  115 1    
   117   60   61 1    
   118   61  116 1    
   119   61  117 1    
@<TRIPOS>SUBSTRUCTURE
     1 UNK         1 GROUP             0       ****    0 ROOT    
