@<TRIPOS>MOLECULE
3R8
117   119    1
SMALL
USER_CHARGES


@<TRIPOS>ATOM
      1 CA         15.9705  -26.1578  -40.0010 C.3       0 UNK        -0.2013 
      2 C          16.8878  -27.3722  -39.8786 C.2       0 UNK         0.4866 
      3 O          17.1299  -27.8302  -38.7638 O.2       0 UNK        -0.5176 
      4 N          17.4091  -27.9295  -40.9797 N.am      1 UNK        -0.4884 
      5 CA         17.2589  -27.4574  -42.3599 C.3       1 UNK         0.0853 
      6 C6         17.5223  -28.5867  -43.3816 C.3       10 UNK        -0.0849 
      7 S7         16.3136  -29.9507  -43.2567 S.3       10 UNK        -0.2776 
      8 C8         16.1476  -30.4641  -45.0013 C.3       10 UNK         0.0316 
      9 C9         17.5047  -30.7230  -45.6408 C.ar      10 UNK        -0.0863 
     10 C10        18.2957  -31.7867  -45.2002 C.ar      10 UNK        -0.1009 
     11 C11        19.5839  -31.9692  -45.7087 C.ar      10 UNK        -0.0712 
     12 C12        20.0699  -31.0959  -46.6868 C.ar      10 UNK        -0.0894 
     13 C13        19.2762  -30.0456  -47.1580 C.ar      10 UNK        -0.0745 
     14 C14        17.9906  -29.8702  -46.6366 C.ar      10 UNK        -0.0972 
     15 C15        19.8056  -29.1039  -48.2322 C.3       10 UNK         0.0209 
     16 S16        19.8282  -27.3642  -47.6910 S.3       10 UNK        -0.2568 
     17 C17        21.1209  -27.3939  -46.4051 C.3       10 UNK        -0.0983 
     18 CA         21.2908  -26.0081  -45.7347 C.3       3 UNK         0.0876 
     19 N          20.0503  -25.5628  -45.0924 N.am      3 UNK        -0.4424 
     20 C          19.8108  -24.3372  -44.6074 C.2       2 UNK         0.4918 
     21 O          20.6019  -23.3987  -44.7031 O.2       2 UNK        -0.4875 
     22 CA         18.4704  -24.1163  -43.8764 C.3       2 UNK         0.0481 
     23 CB         17.5349  -23.2457  -44.7311 C.3       2 UNK        -0.1831 
     24 N          17.7575  -25.3420  -43.4874 N.am      2 UNK        -0.4498 
     25 C          18.2087  -26.2746  -42.6353 C.2       1 UNK         0.5027 
     26 O          19.3329  -26.2485  -42.1272 O.2       1 UNK        -0.4969 
     27 C          22.5050  -26.0070  -44.7784 C.2       3 UNK         0.5005 
     28 O          23.6354  -25.9517  -45.2642 O.2       3 UNK        -0.5279 
     29 N          22.2667  -26.0644  -43.4555 N.am      4 UNK        -0.4463 
     30 CA         23.2188  -25.9395  -42.3363 C.3       4 UNK         0.0283 
     31 CB         23.9050  -24.5603  -42.3488 C.3       4 UNK        -0.1875 
     32 C          24.2655  -27.0642  -42.1951 C.2       4 UNK         0.4949 
     33 O          24.6732  -27.3559  -41.0694 O.2       4 UNK        -0.5039 
     34 N          24.6715  -27.6874  -43.3066 N.am      5 UNK        -0.4663 
     35 CA         25.5942  -28.8232  -43.3762 C.3       5 UNK         0.0242 
     36 CB         25.8000  -29.2002  -44.8522 C.3       5 UNK        -0.1982 
     37 C          25.1002  -30.0434  -42.5789 C.2       5 UNK         0.5017 
     38 O          23.8908  -30.2533  -42.4731 O.2       5 UNK        -0.5012 
     39 N          26.0525  -30.8203  -42.0399 N.am      6 UNK        -0.4439 
     40 CA         25.8454  -32.0204  -41.2153 C.3       6 UNK         0.0297 
     41 CB         25.2797  -33.1741  -42.0721 C.3       6 UNK        -0.2006 
     42 C          24.9989  -31.7440  -39.9549 C.2       6 UNK         0.4892 
     43 O          24.1093  -32.5315  -39.6300 O.2       6 UNK        -0.5089 
     44 N          25.2765  -30.6069  -39.2947 N.am      7 UNK        -0.4243 
     45 CA         24.5456  -30.0471  -38.1483 C.3       7 UNK         0.0196 
     46 CB         24.7403  -30.9209  -36.8906 C.3       7 UNK        -0.2007 
     47 C          23.0636  -29.7946  -38.4867 C.2       7 UNK         0.5020 
     48 O          22.1714  -30.2701  -37.7810 O.2       7 UNK        -0.5147 
     49 N          22.8397  -29.0933  -39.6087 N.am      8 UNK        -0.4734 
     50 CA         21.5415  -28.7853  -40.2262 C.3       8 UNK         0.0238 
     51 CB         20.7541  -27.8072  -39.3312 C.3       8 UNK        -0.1912 
     52 C          20.7212  -30.0326  -40.6174 C.2       8 UNK         0.5038 
     53 O          19.4969  -29.9436  -40.7261 O.2       8 UNK        -0.5046 
     54 N          21.4100  -31.1678  -40.8025 N.am      9 UNK        -0.4200 
     55 CA         20.8547  -32.5133  -41.0082 C.3       9 UNK         0.0839 
     56 C          19.9761  -33.0267  -39.8254 C.2       9 UNK         0.5513 
     57 N          20.1431  -32.5149  -38.6101 N.am      9 UNK        -0.7519 
     58 O          19.1555  -33.9250  -39.9959 O.2       9 UNK        -0.4960 
     59 C59        20.1944  -32.6791  -42.4057 C.3       10 UNK        -0.0876 
     60 S60        21.4300  -32.5622  -43.7454 S.3       10 UNK        -0.2414 
     61 C61        20.4591  -33.0967  -45.1870 C.3       10 UNK         0.0169 
     62 H62        15.6385  -25.8317  -39.0154 H         1 UNK         0.0903 
     63 H63        16.4857  -25.3186  -40.4666 H         1 UNK         0.0903 
     64 H64        15.0814  -26.3977  -40.5832 H         1 UNK         0.0903 
     65 H65        18.0500  -28.7129  -40.8682 H         1 UNK         0.3096 
     66 H66        16.2324  -27.1159  -42.5046 H         1 UNK         0.1121 
     67 H67        17.4822  -28.1857  -44.3959 H         1 UNK         0.0849 
     68 H68        18.5247  -29.0029  -43.2564 H         1 UNK         0.0849 
     69 H69        15.5421  -31.3700  -45.0528 H         1 UNK         0.0865 
     70 H70        15.5988  -29.6962  -45.5488 H         1 UNK         0.0865 
     71 H71        17.9212  -32.4477  -44.4306 H         1 UNK         0.1346 
     72 H72        21.0696  -31.2337  -47.0759 H         1 UNK         0.1412 
     73 H73        17.3824  -29.0478  -46.9883 H         1 UNK         0.1426 
     74 H74        19.1709  -29.1878  -49.1153 H         1 UNK         0.0716 
     75 H75        20.8100  -29.3911  -48.5474 H         1 UNK         0.0716 
     76 H76        22.0535  -27.7140  -46.8745 H         1 UNK         0.0695 
     77 H77        20.8695  -28.1535  -45.6620 H         1 UNK         0.0695 
     78 H78        21.5232  -25.2825  -46.5176 H         1 UNK         0.0983 
     79 H79        19.3255  -26.2580  -45.0059 H         1 UNK         0.3095 
     80 H80        18.6976  -23.5691  -42.9592 H         1 UNK         0.0454 
     81 H81        18.0168  -22.3066  -45.0070 H         1 UNK         0.0851 
     82 H82        16.6236  -22.9897  -44.1905 H         1 UNK         0.0851 
     83 H83        17.2493  -23.7478  -45.6563 H         1 UNK         0.0851 
     84 H84        16.8343  -25.4538  -43.8831 H         1 UNK         0.2976 
     85 H85        21.2961  -26.1400  -43.1700 H         1 UNK         0.3116 
     86 H86        22.6052  -25.9822  -41.4350 H         1 UNK         0.0646 
     87 H87        24.5563  -24.4367  -43.2146 H         1 UNK         0.0847 
     88 H88        23.1725  -23.7531  -42.3622 H         1 UNK         0.0847 
     89 H89        24.5214  -24.4241  -41.4592 H         1 UNK         0.0847 
     90 H90        24.3158  -27.3250  -44.1865 H         1 UNK         0.3040 
     91 H91        26.5472  -28.4940  -42.9570 H         1 UNK         0.1015 
     92 H92        26.5086  -30.0234  -44.9536 H         1 UNK         0.0786 
     93 H93        26.1948  -28.3612  -45.4258 H         1 UNK         0.0786 
     94 H94        24.8653  -29.5151  -45.3188 H         1 UNK         0.0786 
     95 H95        27.0184  -30.5610  -42.1903 H         1 UNK         0.3172 
     96 H96        26.8302  -32.3264  -40.8593 H         1 UNK         0.0595 
     97 H97        24.2697  -32.9594  -42.4233 H         1 UNK         0.0839 
     98 H98        25.2327  -34.1010  -41.4992 H         1 UNK         0.0839 
     99 H99        25.9039  -33.3650  -42.9448 H         1 UNK         0.0839 
    100 H100       26.0148  -30.0242  -39.6648 H         1 UNK         0.2998 
    101 H101       24.9850  -29.0695  -37.9430 H         1 UNK         0.0822 
    102 H102       24.2769  -30.4566  -36.0192 H         1 UNK         0.0787 
    103 H103       25.7972  -31.0571  -36.6619 H         1 UNK         0.0787 
    104 H104       24.2923  -31.9084  -37.0073 H         1 UNK         0.0787 
    105 H105       23.6455  -28.7408  -40.1192 H         1 UNK         0.3055 
    106 H106       21.7552  -28.2794  -41.1673 H         1 UNK         0.1106 
    107 H107       21.3615  -26.9475  -39.0495 H         1 UNK         0.0828 
    108 H108       19.8794  -27.4206  -39.8493 H         1 UNK         0.0828 
    109 H109       20.4016  -28.2873  -38.4178 H         1 UNK         0.0828 
    110 H110       22.4173  -31.1271  -40.7210 H         1 UNK         0.2931 
    111 H111       21.7193  -33.1776  -40.9876 H         1 UNK         0.0412 
    112 H112       20.8263  -31.7841  -38.4458 H         1 UNK         0.3472 
    113 H113       19.5809  -32.8581  -37.8479 H         1 UNK         0.3472 
    114 H114       19.7076  -33.6517  -42.4925 H         1 UNK         0.0970 
    115 H115       19.4163  -31.9294  -42.5556 H         1 UNK         0.0970 
    116 H116       21.1461  -33.4238  -45.9688 H         1 UNK         0.0612 
    117 H117       19.8539  -33.9672  -44.9297 H         1 UNK         0.0612 
@<TRIPOS>BOND
     1    1    2 1    
     2    1   62 1    
     3    1   63 1    
     4    1   64 1    
     5    2    3 2    
     6    2    4 am   BACKBONE|DICT|INTERRES
     7    4    5 1    
     8    4   65 1    
     9    5    6 1    
    10    5   25 1    
    11    5   66 1    
    12    6    7 1    
    13    6   67 1    
    14    6   68 1    
    15    7    8 1    
    16    8    9 1    
    17    8   69 1    
    18    8   70 1    
    19    9   10 ar   
    20    9   14 ar   
    21   10   11 ar   
    22   10   71 1    
    23   11   12 ar   
    24   11   61 1    
    25   12   13 ar   
    26   12   72 1    
    27   13   14 ar   
    28   13   15 1    
    29   14   73 1    
    30   15   16 1    
    31   15   74 1    
    32   15   75 1    
    33   16   17 1    
    34   17   18 1    
    35   17   76 1    
    36   17   77 1    
    37   18   19 1    
    38   18   27 1    
    39   18   78 1    
    40   19   20 am   BACKBONE|DICT|INTERRES
    41   19   79 1    
    42   20   21 2    
    43   20   22 1    
    44   22   23 1    
    45   22   24 1    
    46   22   80 1    
    47   23   81 1    
    48   23   82 1    
    49   23   83 1    
    50   24   25 am   BACKBONE|DICT|INTERRES
    51   24   84 1    
    52   25   26 2    
    53   27   28 2    
    54   27   29 am   BACKBONE|DICT|INTERRES
    55   29   30 1    
    56   29   85 1    
    57   30   31 1    
    58   30   32 1    
    59   30   86 1    
    60   31   87 1    
    61   31   88 1    
    62   31   89 1    
    63   32   33 2    
    64   32   34 am   BACKBONE|DICT|INTERRES
    65   34   35 1    
    66   34   90 1    
    67   35   36 1    
    68   35   37 1    
    69   35   91 1    
    70   36   92 1    
    71   36   93 1    
    72   36   94 1    
    73   37   38 2    
    74   37   39 am   BACKBONE|DICT|INTERRES
    75   39   40 1    
    76   39   95 1    
    77   40   41 1    
    78   40   42 1    
    79   40   96 1    
    80   41   97 1    
    81   41   98 1    
    82   41   99 1    
    83   42   43 2    
    84   42   44 am   BACKBONE|DICT|INTERRES
    85   44   45 1    
    86   44  100 1    
    87   45   46 1    
    88   45   47 1    
    89   45  101 1    
    90   46  102 1    
    91   46  103 1    
    92   46  104 1    
    93   47   48 2    
    94   47   49 am   BACKBONE|DICT|INTERRES
    95   49   50 1    
    96   49  105 1    
    97   50   51 1    
    98   50   52 1    
    99   50  106 1    
   100   51  107 1    
   101   51  108 1    
   102   51  109 1    
   103   52   53 2    
   104   52   54 am   BACKBONE|DICT|INTERRES
   105   54   55 1    
   106   54  110 1    
   107   55   56 1    
   108   55   59 1    
   109   55  111 1    
   110   56   57 am   BACKBONE|DICT|INTERRES
   111   56   58 2    
   112   57  112 1    
   113   57  113 1    
   114   59   60 1    
   115   59  114 1    
   116   59  115 1    
   117   60   61 1    
   118   61  116 1    
   119   61  117 1    
@<TRIPOS>SUBSTRUCTURE
     1 UNK         1 GROUP             0       ****    0 ROOT    
