@<TRIPOS>MOLECULE
3R8
117   119    1
SMALL
USER_CHARGES


@<TRIPOS>ATOM
      1 CA         20.1378  -23.0618  -43.7721 C.3       0 UNK        -0.2013 
      2 C          19.9465  -24.4206  -44.4277 C.2       0 UNK         0.4866 
      3 O          19.8116  -25.4217  -43.7227 O.2       0 UNK        -0.5176 
      4 N          19.9399  -24.4654  -45.7698 N.am      1 UNK        -0.4884 
      5 CA         19.8083  -25.6767  -46.5923 C.3       1 UNK         0.0853 
      6 C6         18.3753  -26.2816  -46.4915 C.3       10 UNK        -0.0849 
      7 S7         18.0440  -27.5853  -47.7279 S.3       10 UNK        -0.2776 
      8 C8         16.5238  -28.3488  -47.0763 C.3       10 UNK         0.0316 
      9 C9         16.7300  -29.0422  -45.7341 C.ar      10 UNK        -0.0863 
     10 C10        17.3706  -30.2842  -45.6645 C.ar      10 UNK        -0.1009 
     11 C11        17.5099  -30.9548  -44.4431 C.ar      10 UNK        -0.0712 
     12 C12        16.9778  -30.3657  -43.2869 C.ar      10 UNK        -0.0894 
     13 C13        16.3693  -29.1085  -43.3340 C.ar      10 UNK        -0.0745 
     14 C14        16.2426  -28.4560  -44.5628 C.ar      10 UNK        -0.0972 
     15 C15        15.8414  -28.4510  -42.0615 C.3       10 UNK         0.0209 
     16 S16        17.0934  -28.3180  -40.7359 S.3       10 UNK        -0.2568 
     17 C17        18.4897  -27.5219  -41.6007 C.3       10 UNK        -0.0983 
     18 CA         19.6479  -28.5256  -41.8577 C.3       3 UNK         0.0876 
     19 N          20.2605  -28.3136  -43.1725 N.am      3 UNK        -0.4424 
     20 C          21.0228  -29.2100  -43.8198 C.2       2 UNK         0.4918 
     21 O          21.3371  -30.2977  -43.3425 O.2       2 UNK        -0.4875 
     22 CA         21.5111  -28.8533  -45.2338 C.3       2 UNK         0.0481 
     23 CB         21.5732  -30.0896  -46.1496 C.3       2 UNK        -0.1831 
     24 N          20.6197  -27.8667  -45.8300 N.am      2 UNK        -0.4498 
     25 C          20.9649  -26.6530  -46.2668 C.2       1 UNK         0.5027 
     26 O          22.1304  -26.2658  -46.3764 O.2       1 UNK        -0.4969 
     27 C          20.6865  -28.5418  -40.7155 C.2       3 UNK         0.5005 
     28 O          21.8905  -28.4419  -40.9665 O.2       3 UNK        -0.5279 
     29 N          20.2156  -28.6711  -39.4674 N.am      4 UNK        -0.4463 
     30 CA         21.0266  -28.7968  -38.2454 C.3       4 UNK         0.0283 
     31 CB         20.0931  -28.9047  -37.0297 C.3       4 UNK        -0.1875 
     32 C          22.0676  -27.6824  -38.0233 C.2       4 UNK         0.4949 
     33 O          23.1099  -27.9425  -37.4229 O.2       4 UNK        -0.5039 
     34 N          21.7796  -26.4759  -38.5260 N.am      5 UNK        -0.4663 
     35 CA         22.6822  -25.3238  -38.4917 C.3       5 UNK         0.0242 
     36 CB         21.8347  -24.0409  -38.5464 C.3       5 UNK        -0.1982 
     37 C          23.7272  -25.3194  -39.6257 C.2       5 UNK         0.5017 
     38 O          24.6596  -24.5171  -39.5573 O.2       5 UNK        -0.5012 
     39 N          23.5481  -26.1635  -40.6520 N.am      6 UNK        -0.4439 
     40 CA         24.3444  -26.1689  -41.8804 C.3       6 UNK         0.0297 
     41 CB         23.4168  -25.9341  -43.0854 C.3       6 UNK        -0.2006 
     42 C          25.1467  -27.4661  -42.0582 C.2       6 UNK         0.4892 
     43 O          26.3456  -27.3863  -42.3304 O.2       6 UNK        -0.5089 
     44 N          24.4900  -28.6276  -41.9293 N.am      7 UNK        -0.4243 
     45 CA         25.0870  -29.9398  -42.2125 C.3       7 UNK         0.0196 
     46 CB         25.0661  -30.2013  -43.7318 C.3       7 UNK        -0.2007 
     47 C          24.4398  -31.1161  -41.4615 C.2       7 UNK         0.5020 
     48 O          25.0163  -32.2046  -41.4809 O.2       7 UNK        -0.5147 
     49 N          23.2653  -30.9168  -40.8427 N.am      8 UNK        -0.4734 
     50 CA         22.4582  -31.9315  -40.1428 C.3       8 UNK         0.0238 
     51 CB         23.1523  -32.3780  -38.8386 C.3       8 UNK        -0.1912 
     52 C          22.0358  -33.1151  -41.0391 C.2       8 UNK         0.5038 
     53 O          21.9373  -34.2480  -40.5639 O.2       8 UNK        -0.5046 
     54 N          21.7892  -32.8139  -42.3192 N.am      9 UNK        -0.4200 
     55 CA         21.3439  -33.7178  -43.3890 C.3       9 UNK         0.0839 
     56 C          22.3597  -34.8361  -43.7696 C.2       9 UNK         0.5513 
     57 N          23.6294  -34.7314  -43.3936 N.am      9 UNK        -0.7519 
     58 O          22.0027  -35.7979  -44.4453 O.2       9 UNK        -0.4960 
     59 C59        19.8941  -34.2453  -43.1807 C.3       10 UNK        -0.0876 
     60 S60        18.7036  -32.9202  -42.7706 S.3       10 UNK        -0.2414 
     61 C61        18.2344  -32.3056  -44.4267 C.3       10 UNK         0.0169 
     62 H62        21.0221  -23.0753  -43.1355 H         1 UNK         0.0903 
     63 H63        20.2596  -22.2665  -44.5071 H         1 UNK         0.0903 
     64 H64        19.2751  -22.8223  -43.1511 H         1 UNK         0.0903 
     65 H65        20.0912  -23.6109  -46.2884 H         1 UNK         0.3096 
     66 H66        19.9655  -25.3641  -47.6262 H         1 UNK         0.1121 
     67 H67        18.1852  -26.6588  -45.4861 H         1 UNK         0.0849 
     68 H68        17.6377  -25.4933  -46.6503 H         1 UNK         0.0849 
     69 H69        15.7452  -27.5877  -47.0032 H         1 UNK         0.0865 
     70 H70        16.1608  -29.0783  -47.8019 H         1 UNK         0.0865 
     71 H71        17.7560  -30.7339  -46.5697 H         1 UNK         0.1346 
     72 H72        17.0508  -30.8624  -42.3308 H         1 UNK         0.1412 
     73 H73        15.7547  -27.4917  -44.6097 H         1 UNK         0.1426 
     74 H74        14.9949  -29.0295  -41.6896 H         1 UNK         0.0716 
     75 H75        15.4603  -27.4510  -42.2740 H         1 UNK         0.0716 
     76 H76        18.1136  -27.1167  -42.5411 H         1 UNK         0.0695 
     77 H77        18.8211  -26.6491  -41.0343 H         1 UNK         0.0695 
     78 H78        19.2378  -29.5370  -41.8882 H         1 UNK         0.0983 
     79 H79        20.1139  -27.3951  -43.5802 H         1 UNK         0.3095 
     80 H80        22.5186  -28.4475  -45.1258 H         1 UNK         0.0454 
     81 H81        20.5953  -30.5602  -46.2549 H         1 UNK         0.0851 
     82 H82        21.9258  -29.8247  -47.1462 H         1 UNK         0.0851 
     83 H83        22.2574  -30.8422  -45.7561 H         1 UNK         0.0851 
     84 H84        19.6341  -28.0966  -45.8126 H         1 UNK         0.2976 
     85 H85        19.2117  -28.7226  -39.3489 H         1 UNK         0.3116 
     86 H86        21.5846  -29.7301  -38.3200 H         1 UNK         0.0646 
     87 H87        20.6638  -29.0219  -36.1072 H         1 UNK         0.0847 
     88 H88        19.4328  -29.7685  -37.1094 H         1 UNK         0.0847 
     89 H89        19.4722  -28.0150  -36.9173 H         1 UNK         0.0847 
     90 H90        20.8961  -26.3519  -38.9986 H         1 UNK         0.3040 
     91 H91        23.2313  -25.3294  -37.5471 H         1 UNK         0.1015 
     92 H92        21.1291  -23.9954  -37.7166 H         1 UNK         0.0786 
     93 H93        21.2676  -23.9704  -39.4757 H         1 UNK         0.0786 
     94 H94        22.4643  -23.1523  -38.4813 H         1 UNK         0.0786 
     95 H95        22.8005  -26.8500  -40.5980 H         1 UNK         0.3172 
     96 H96        25.0663  -25.3496  -41.8665 H         1 UNK         0.0595 
     97 H97        22.9434  -24.9539  -43.0336 H         1 UNK         0.0839 
     98 H98        22.6240  -26.6789  -43.1411 H         1 UNK         0.0839 
     99 H99        23.9698  -25.9762  -44.0250 H         1 UNK         0.0839 
    100 H100       23.5043  -28.6025  -41.6780 H         1 UNK         0.2998 
    101 H101       26.1281  -29.9220  -41.8828 H         1 UNK         0.0822 
    102 H102       25.6108  -29.4327  -44.2800 H         1 UNK         0.0787 
    103 H103       25.5316  -31.1578  -43.9736 H         1 UNK         0.0787 
    104 H104       24.0472  -30.2300  -44.1163 H         1 UNK         0.0787 
    105 H105       22.8298  -30.0011  -40.9089 H         1 UNK         0.3055 
    106 H106       21.5224  -31.4448  -39.8684 H         1 UNK         0.1106 
    107 H107       24.0630  -32.9430  -39.0389 H         1 UNK         0.0828 
    108 H108       23.4183  -31.5231  -38.2169 H         1 UNK         0.0828 
    109 H109       22.4976  -33.0175  -38.2453 H         1 UNK         0.0828 
    110 H110       21.8420  -31.8364  -42.6000 H         1 UNK         0.2931 
    111 H111       21.3158  -33.0826  -44.2748 H         1 UNK         0.0412 
    112 H112       24.2838  -35.4527  -43.6526 H         1 UNK         0.3472 
    113 H113       23.9336  -33.9499  -42.8299 H         1 UNK         0.3472 
    114 H114       19.8760  -34.9772  -42.3716 H         1 UNK         0.0970 
    115 H115       19.5420  -34.7702  -44.0705 H         1 UNK         0.0970 
    116 H116       19.1411  -32.2193  -45.0267 H         1 UNK         0.0612 
    117 H117       17.6050  -33.0521  -44.9125 H         1 UNK         0.0612 
@<TRIPOS>BOND
     1    1    2 1    
     2    1   62 1    
     3    1   63 1    
     4    1   64 1    
     5    2    3 2    
     6    2    4 am   BACKBONE|DICT|INTERRES
     7    4    5 1    
     8    4   65 1    
     9    5    6 1    
    10    5   25 1    
    11    5   66 1    
    12    6    7 1    
    13    6   67 1    
    14    6   68 1    
    15    7    8 1    
    16    8    9 1    
    17    8   69 1    
    18    8   70 1    
    19    9   10 ar   
    20    9   14 ar   
    21   10   11 ar   
    22   10   71 1    
    23   11   12 ar   
    24   11   61 1    
    25   12   13 ar   
    26   12   72 1    
    27   13   14 ar   
    28   13   15 1    
    29   14   73 1    
    30   15   16 1    
    31   15   74 1    
    32   15   75 1    
    33   16   17 1    
    34   17   18 1    
    35   17   76 1    
    36   17   77 1    
    37   18   19 1    
    38   18   27 1    
    39   18   78 1    
    40   19   20 am   BACKBONE|DICT|INTERRES
    41   19   79 1    
    42   20   21 2    
    43   20   22 1    
    44   22   23 1    
    45   22   24 1    
    46   22   80 1    
    47   23   81 1    
    48   23   82 1    
    49   23   83 1    
    50   24   25 am   BACKBONE|DICT|INTERRES
    51   24   84 1    
    52   25   26 2    
    53   27   28 2    
    54   27   29 am   BACKBONE|DICT|INTERRES
    55   29   30 1    
    56   29   85 1    
    57   30   31 1    
    58   30   32 1    
    59   30   86 1    
    60   31   87 1    
    61   31   88 1    
    62   31   89 1    
    63   32   33 2    
    64   32   34 am   BACKBONE|DICT|INTERRES
    65   34   35 1    
    66   34   90 1    
    67   35   36 1    
    68   35   37 1    
    69   35   91 1    
    70   36   92 1    
    71   36   93 1    
    72   36   94 1    
    73   37   38 2    
    74   37   39 am   BACKBONE|DICT|INTERRES
    75   39   40 1    
    76   39   95 1    
    77   40   41 1    
    78   40   42 1    
    79   40   96 1    
    80   41   97 1    
    81   41   98 1    
    82   41   99 1    
    83   42   43 2    
    84   42   44 am   BACKBONE|DICT|INTERRES
    85   44   45 1    
    86   44  100 1    
    87   45   46 1    
    88   45   47 1    
    89   45  101 1    
    90   46  102 1    
    91   46  103 1    
    92   46  104 1    
    93   47   48 2    
    94   47   49 am   BACKBONE|DICT|INTERRES
    95   49   50 1    
    96   49  105 1    
    97   50   51 1    
    98   50   52 1    
    99   50  106 1    
   100   51  107 1    
   101   51  108 1    
   102   51  109 1    
   103   52   53 2    
   104   52   54 am   BACKBONE|DICT|INTERRES
   105   54   55 1    
   106   54  110 1    
   107   55   56 1    
   108   55   59 1    
   109   55  111 1    
   110   56   57 am   BACKBONE|DICT|INTERRES
   111   56   58 2    
   112   57  112 1    
   113   57  113 1    
   114   59   60 1    
   115   59  114 1    
   116   59  115 1    
   117   60   61 1    
   118   61  116 1    
   119   61  117 1    
@<TRIPOS>SUBSTRUCTURE
     1 UNK         1 GROUP             0       ****    0 ROOT    
