@<TRIPOS>MOLECULE
3R8
117   119    1
SMALL
USER_CHARGES


@<TRIPOS>ATOM
      1 CA         21.1318  -25.0911  -39.3434 C.3       0 UNK        -0.2013 
      2 C          19.9500  -25.1635  -40.2973 C.2       0 UNK         0.4866 
      3 O          18.8207  -24.8951  -39.8866 O.2       0 UNK        -0.5176 
      4 N          20.1944  -25.5144  -41.5646 N.am      1 UNK        -0.4884 
      5 CA         19.1788  -25.6040  -42.6137 C.3       1 UNK         0.0853 
      6 C6         18.3501  -26.9131  -42.5305 C.3       10 UNK        -0.0849 
      7 S7         16.6625  -26.7015  -43.1821 S.3       10 UNK        -0.2776 
      8 C8         15.9445  -28.3343  -42.8083 C.3       10 UNK         0.0316 
      9 C9         16.5925  -29.4391  -43.6309 C.ar      10 UNK        -0.0863 
     10 C10        17.3841  -30.4168  -43.0162 C.ar      10 UNK        -0.1009 
     11 C11        17.9830  -31.4246  -43.7798 C.ar      10 UNK        -0.0712 
     12 C12        17.7836  -31.4490  -45.1624 C.ar      10 UNK        -0.0894 
     13 C13        17.0243  -30.4584  -45.7893 C.ar      10 UNK        -0.0745 
     14 C14        16.4109  -29.4700  -45.0168 C.ar      10 UNK        -0.0972 
     15 C15        16.9253  -30.4220  -47.3065 C.3       10 UNK         0.0209 
     16 S16        17.9132  -29.0622  -48.0175 S.3       10 UNK        -0.2568 
     17 C17        19.5809  -29.3883  -47.3387 C.3       10 UNK        -0.0983 
     18 CA         20.5216  -28.1605  -47.4283 C.3       3 UNK         0.0876 
     19 N          19.9237  -26.9691  -46.8103 N.am      3 UNK        -0.4424 
     20 C          20.1989  -25.7030  -47.1456 C.2       2 UNK         0.4918 
     21 O          20.9768  -25.3915  -48.0471 O.2       2 UNK        -0.4875 
     22 CA         19.5261  -24.5897  -46.3218 C.3       2 UNK         0.0481 
     23 CB         18.3246  -24.0185  -47.0917 C.3       2 UNK        -0.1831 
     24 N          19.0896  -24.9709  -44.9719 N.am      2 UNK        -0.4498 
     25 C          19.8635  -25.4357  -43.9800 C.2       1 UNK         0.5027 
     26 O          21.0531  -25.7426  -44.1112 O.2       1 UNK        -0.4969 
     27 C          21.9265  -28.4869  -46.8577 C.2       3 UNK         0.5005 
     28 O          22.4471  -29.5682  -47.1362 O.2       3 UNK        -0.5279 
     29 N          22.5119  -27.5629  -46.0777 N.am      4 UNK        -0.4463 
     30 CA         23.7977  -27.6454  -45.3771 C.3       4 UNK         0.0283 
     31 CB         24.9729  -27.9297  -46.3382 C.3       4 UNK        -0.1875 
     32 C          23.7407  -28.5960  -44.1692 C.2       4 UNK         0.4949 
     33 O          24.6655  -29.3798  -43.9483 O.2       4 UNK        -0.5039 
     34 N          22.6596  -28.4799  -43.3875 N.am      5 UNK        -0.4663 
     35 CA         22.5363  -29.0919  -42.0636 C.3       5 UNK         0.0242 
     36 CB         21.0482  -29.1627  -41.6891 C.3       5 UNK        -0.1982 
     37 C          23.3185  -28.2419  -41.0474 C.2       5 UNK         0.5017 
     38 O          23.3034  -27.0137  -41.1658 O.2       5 UNK        -0.5012 
     39 N          23.9803  -28.8837  -40.0773 N.am      6 UNK        -0.4439 
     40 CA         24.8543  -28.2142  -39.1124 C.3       6 UNK         0.0297 
     41 CB         26.2463  -28.0067  -39.7460 C.3       6 UNK        -0.2006 
     42 C          24.9238  -29.0027  -37.7896 C.2       6 UNK         0.4892 
     43 O          25.9237  -29.6789  -37.5526 O.2       6 UNK        -0.5089 
     44 N          23.9115  -28.9432  -36.9092 N.am      7 UNK        -0.4243 
     45 CA         22.5806  -28.3482  -37.0927 C.3       7 UNK         0.0196 
     46 CB         22.0419  -27.8987  -35.7252 C.3       7 UNK        -0.2007 
     47 C          21.5958  -29.3269  -37.7566 C.2       7 UNK         0.5020 
     48 O          20.5766  -28.8884  -38.2868 O.2       7 UNK        -0.5147 
     49 N          21.9330  -30.6214  -37.7371 N.am      8 UNK        -0.4734 
     50 CA         21.2801  -31.6874  -38.4930 C.3       8 UNK         0.0238 
     51 CB         21.0693  -32.8928  -37.5608 C.3       8 UNK        -0.1912 
     52 C          22.1731  -32.0753  -39.6822 C.2       8 UNK         0.5038 
     53 O          23.3452  -31.6865  -39.7254 O.2       8 UNK        -0.5046 
     54 N          21.6021  -32.8215  -40.6313 N.am      9 UNK        -0.4200 
     55 CA         22.3291  -33.3978  -41.7706 C.3       9 UNK         0.0839 
     56 C          23.1885  -34.6172  -41.3419 C.2       9 UNK         0.5513 
     57 N          24.3315  -34.8244  -41.9807 N.am      9 UNK        -0.7519 
     58 O          22.8104  -35.3953  -40.4681 O.2       9 UNK        -0.4960 
     59 C59        21.3677  -33.7771  -42.9234 C.3       10 UNK        -0.0876 
     60 S60        20.5938  -32.3058  -43.6709 S.3       10 UNK        -0.2414 
     61 C61        18.8643  -32.4814  -43.1310 C.3       10 UNK         0.0169 
     62 H62        21.1021  -25.9356  -38.6567 H         1 UNK         0.0903 
     63 H63        22.0841  -25.1064  -39.8718 H         1 UNK         0.0903 
     64 H64        21.0889  -24.1730  -38.7579 H         1 UNK         0.0903 
     65 H65        21.1419  -25.6921  -41.8808 H         1 UNK         0.3096 
     66 H66        18.5138  -24.7467  -42.4816 H         1 UNK         0.1121 
     67 H67        18.2516  -27.2357  -41.4927 H         1 UNK         0.0849 
     68 H68        18.8421  -27.7353  -43.0534 H         1 UNK         0.0849 
     69 H69        16.0350  -28.5352  -41.7396 H         1 UNK         0.0865 
     70 H70        14.8755  -28.3089  -43.0243 H         1 UNK         0.0865 
     71 H71        17.5408  -30.3889  -41.9465 H         1 UNK         0.1346 
     72 H72        18.2664  -32.2140  -45.7555 H         1 UNK         0.1412 
     73 H73        15.8253  -28.6990  -45.4995 H         1 UNK         0.1426 
     74 H74        15.8823  -30.2971  -47.6007 H         1 UNK         0.0716 
     75 H75        17.2568  -31.3668  -47.7404 H         1 UNK         0.0716 
     76 H76        19.5039  -29.6967  -46.2964 H         1 UNK         0.0695 
     77 H77        19.9978  -30.2392  -47.8807 H         1 UNK         0.0695 
     78 H78        20.6739  -27.9491  -48.4891 H         1 UNK         0.0983 
     79 H79        19.2565  -27.1381  -46.0721 H         1 UNK         0.3095 
     80 H80        20.2628  -23.7926  -46.2048 H         1 UNK         0.0454 
     81 H81        18.6179  -23.6939  -48.0913 H         1 UNK         0.0851 
     82 H82        17.5326  -24.7592  -47.2100 H         1 UNK         0.0851 
     83 H83        17.9019  -23.1508  -46.5852 H         1 UNK         0.0851 
     84 H84        18.1140  -24.8054  -44.7651 H         1 UNK         0.2976 
     85 H85        21.9721  -26.7315  -45.8685 H         1 UNK         0.3116 
     86 H86        23.9646  -26.6513  -44.9592 H         1 UNK         0.0646 
     87 H87        25.9280  -27.8173  -45.8240 H         1 UNK         0.0847 
     88 H88        24.9752  -27.2378  -47.1802 H         1 UNK         0.0847 
     89 H89        24.9420  -28.9445  -46.7350 H         1 UNK         0.0847 
     90 H90        21.9916  -27.7548  -43.6145 H         1 UNK         0.3040 
     91 H91        22.9464  -30.1036  -42.0980 H         1 UNK         0.1015 
     92 H92        20.4478  -29.5827  -42.4956 H         1 UNK         0.0786 
     93 H93        20.6477  -28.1810  -41.4453 H         1 UNK         0.0786 
     94 H94        20.8926  -29.7893  -40.8143 H         1 UNK         0.0786 
     95 H95        23.9071  -29.8974  -39.9941 H         1 UNK         0.3172 
     96 H96        24.4680  -27.2209  -38.8800 H         1 UNK         0.0595 
     97 H97        26.9344  -27.5436  -39.0376 H         1 UNK         0.0839 
     98 H98        26.1937  -27.3527  -40.6167 H         1 UNK         0.0839 
     99 H99        26.6896  -28.9508  -40.0650 H         1 UNK         0.0839 
    100 H100       24.0398  -29.4315  -36.0345 H         1 UNK         0.2998 
    101 H101       22.6441  -27.4649  -37.7266 H         1 UNK         0.0822 
    102 H102       21.0620  -27.4297  -35.8271 H         1 UNK         0.0787 
    103 H103       21.9314  -28.7374  -35.0365 H         1 UNK         0.0787 
    104 H104       22.7023  -27.1664  -35.2601 H         1 UNK         0.0787 
    105 H105       22.8265  -30.8650  -37.3332 H         1 UNK         0.3055 
    106 H106       20.3124  -31.3515  -38.8732 H         1 UNK         0.1106 
    107 H107       20.4616  -32.6223  -36.6971 H         1 UNK         0.0828 
    108 H108       20.5539  -33.7055  -38.0742 H         1 UNK         0.0828 
    109 H109       22.0159  -33.2904  -37.1919 H         1 UNK         0.0828 
    110 H110       20.6488  -33.1283  -40.5135 H         1 UNK         0.2931 
    111 H111       23.0129  -32.6347  -42.1498 H         1 UNK         0.0412 
    112 H112       24.8977  -35.6195  -41.7276 H         1 UNK         0.3472 
    113 H113       24.6461  -34.1964  -42.7044 H         1 UNK         0.3472 
    114 H114       20.6050  -34.4794  -42.5822 H         1 UNK         0.0970 
    115 H115       21.9111  -34.2890  -43.7201 H         1 UNK         0.0970 
    116 H116       18.8180  -32.4130  -42.0432 H         1 UNK         0.0612 
    117 H117       18.4946  -33.4710  -43.4031 H         1 UNK         0.0612 
@<TRIPOS>BOND
     1    1    2 1    
     2    1   62 1    
     3    1   63 1    
     4    1   64 1    
     5    2    3 2    
     6    2    4 am   BACKBONE|DICT|INTERRES
     7    4    5 1    
     8    4   65 1    
     9    5    6 1    
    10    5   25 1    
    11    5   66 1    
    12    6    7 1    
    13    6   67 1    
    14    6   68 1    
    15    7    8 1    
    16    8    9 1    
    17    8   69 1    
    18    8   70 1    
    19    9   10 ar   
    20    9   14 ar   
    21   10   11 ar   
    22   10   71 1    
    23   11   12 ar   
    24   11   61 1    
    25   12   13 ar   
    26   12   72 1    
    27   13   14 ar   
    28   13   15 1    
    29   14   73 1    
    30   15   16 1    
    31   15   74 1    
    32   15   75 1    
    33   16   17 1    
    34   17   18 1    
    35   17   76 1    
    36   17   77 1    
    37   18   19 1    
    38   18   27 1    
    39   18   78 1    
    40   19   20 am   BACKBONE|DICT|INTERRES
    41   19   79 1    
    42   20   21 2    
    43   20   22 1    
    44   22   23 1    
    45   22   24 1    
    46   22   80 1    
    47   23   81 1    
    48   23   82 1    
    49   23   83 1    
    50   24   25 am   BACKBONE|DICT|INTERRES
    51   24   84 1    
    52   25   26 2    
    53   27   28 2    
    54   27   29 am   BACKBONE|DICT|INTERRES
    55   29   30 1    
    56   29   85 1    
    57   30   31 1    
    58   30   32 1    
    59   30   86 1    
    60   31   87 1    
    61   31   88 1    
    62   31   89 1    
    63   32   33 2    
    64   32   34 am   BACKBONE|DICT|INTERRES
    65   34   35 1    
    66   34   90 1    
    67   35   36 1    
    68   35   37 1    
    69   35   91 1    
    70   36   92 1    
    71   36   93 1    
    72   36   94 1    
    73   37   38 2    
    74   37   39 am   BACKBONE|DICT|INTERRES
    75   39   40 1    
    76   39   95 1    
    77   40   41 1    
    78   40   42 1    
    79   40   96 1    
    80   41   97 1    
    81   41   98 1    
    82   41   99 1    
    83   42   43 2    
    84   42   44 am   BACKBONE|DICT|INTERRES
    85   44   45 1    
    86   44  100 1    
    87   45   46 1    
    88   45   47 1    
    89   45  101 1    
    90   46  102 1    
    91   46  103 1    
    92   46  104 1    
    93   47   48 2    
    94   47   49 am   BACKBONE|DICT|INTERRES
    95   49   50 1    
    96   49  105 1    
    97   50   51 1    
    98   50   52 1    
    99   50  106 1    
   100   51  107 1    
   101   51  108 1    
   102   51  109 1    
   103   52   53 2    
   104   52   54 am   BACKBONE|DICT|INTERRES
   105   54   55 1    
   106   54  110 1    
   107   55   56 1    
   108   55   59 1    
   109   55  111 1    
   110   56   57 am   BACKBONE|DICT|INTERRES
   111   56   58 2    
   112   57  112 1    
   113   57  113 1    
   114   59   60 1    
   115   59  114 1    
   116   59  115 1    
   117   60   61 1    
   118   61  116 1    
   119   61  117 1    
@<TRIPOS>SUBSTRUCTURE
     1 UNK         1 GROUP             0       ****    0 ROOT    
