@<TRIPOS>MOLECULE
3R8
117   119    1
SMALL
USER_CHARGES


@<TRIPOS>ATOM
      1 CA         14.8686  -23.5301  -45.0850 C.3       0 UNK        -0.2013 
      2 C          15.3551  -24.4416  -43.9682 C.2       0 UNK         0.4866 
      3 O          15.1963  -24.1025  -42.7954 O.2       0 UNK        -0.5176 
      4 N          15.9450  -25.5895  -44.3317 N.am      1 UNK        -0.4884 
      5 CA         16.4870  -26.6221  -43.4322 C.3       1 UNK         0.0853 
      6 C6         15.4048  -27.3707  -42.6071 C.3       10 UNK        -0.0849 
      7 S7         14.1464  -28.1466  -43.6808 S.3       10 UNK        -0.2776 
      8 C8         14.5568  -29.9228  -43.5545 C.3       10 UNK         0.0316 
      9 C9         15.9336  -30.3012  -44.1012 C.ar      10 UNK        -0.0863 
     10 C10        16.7030  -31.2522  -43.4220 C.ar      10 UNK        -0.1009 
     11 C11        17.9504  -31.6522  -43.9121 C.ar      10 UNK        -0.0712 
     12 C12        18.4240  -31.0931  -45.1038 C.ar      10 UNK        -0.0894 
     13 C13        17.6916  -30.1088  -45.7688 C.ar      10 UNK        -0.0745 
     14 C14        16.4335  -29.7407  -45.2830 C.ar      10 UNK        -0.0972 
     15 C15        18.2734  -29.4252  -46.9962 C.3       10 UNK         0.0209 
     16 S16        19.1359  -27.8830  -46.5464 S.3       10 UNK        -0.2568 
     17 C17        20.7337  -28.4982  -45.9032 C.3       10 UNK        -0.0983 
     18 CA         21.5847  -27.3543  -45.2915 C.3       3 UNK         0.0876 
     19 N          20.9150  -26.7449  -44.1405 N.am      3 UNK        -0.4424 
     20 C          20.9196  -25.4398  -43.8490 C.2       2 UNK         0.4918 
     21 O          21.5887  -24.5983  -44.4515 O.2       2 UNK        -0.4875 
     22 CA         19.9047  -25.0071  -42.7798 C.3       2 UNK         0.0481 
     23 CB         19.8989  -23.4897  -42.5175 C.3       2 UNK        -0.1831 
     24 N          18.5941  -25.4269  -43.2685 N.am      2 UNK        -0.4498 
     25 C          17.6548  -26.0828  -42.5784 C.2       1 UNK         0.5027 
     26 O          17.6849  -26.2635  -41.3599 O.2       1 UNK        -0.4969 
     27 C          23.0128  -27.8075  -44.9241 C.2       3 UNK         0.5005 
     28 O          23.3820  -27.8294  -43.7462 O.2       3 UNK        -0.5279 
     29 N          23.7911  -28.1512  -45.9618 N.am      4 UNK        -0.4463 
     30 CA         25.2468  -28.3606  -45.9697 C.3       4 UNK         0.0283 
     31 CB         25.6764  -28.7841  -47.3845 C.3       4 UNK        -0.1875 
     32 C          25.8391  -29.3303  -44.9292 C.2       4 UNK         0.4949 
     33 O          27.0329  -29.2264  -44.6454 O.2       4 UNK        -0.5039 
     34 N          25.0278  -30.2396  -44.3697 N.am      5 UNK        -0.4663 
     35 CA         25.4324  -31.1220  -43.2683 C.3       5 UNK         0.0242 
     36 CB         24.3913  -32.2345  -43.0793 C.3       5 UNK        -0.1982 
     37 C          25.6714  -30.3733  -41.9421 C.2       5 UNK         0.5017 
     38 O          26.4030  -30.8908  -41.0974 O.2       5 UNK        -0.5012 
     39 N          25.0659  -29.1832  -41.7883 N.am      6 UNK        -0.4439 
     40 CA         25.2210  -28.1858  -40.7186 C.3       6 UNK         0.0297 
     41 CB         26.6573  -27.6290  -40.6888 C.3       6 UNK        -0.2006 
     42 C          24.7745  -28.6262  -39.3126 C.2       6 UNK         0.4892 
     43 O          24.0313  -27.8900  -38.6645 O.2       6 UNK        -0.5089 
     44 N          25.2405  -29.7933  -38.8571 N.am      7 UNK        -0.4243 
     45 CA         24.8934  -30.3899  -37.5688 C.3       7 UNK         0.0196 
     46 CB         26.0671  -31.2448  -37.0613 C.3       7 UNK        -0.2007 
     47 C          23.6107  -31.2217  -37.6853 C.2       7 UNK         0.5020 
     48 O          22.6655  -30.9952  -36.9305 O.2       7 UNK        -0.5147 
     49 N          23.5930  -32.1592  -38.6437 N.am      8 UNK        -0.4734 
     50 CA         22.4626  -33.0622  -38.8920 C.3       8 UNK         0.0238 
     51 CB         22.9484  -34.2671  -39.7140 C.3       8 UNK        -0.1912 
     52 C          21.2761  -32.3810  -39.5953 C.2       8 UNK         0.5038 
     53 O          20.1491  -32.8610  -39.4679 O.2       8 UNK        -0.5046 
     54 N          21.5558  -31.2915  -40.3190 N.am      9 UNK        -0.4200 
     55 CA         20.5866  -30.4917  -41.0806 C.3       9 UNK         0.0839 
     56 C          20.6358  -28.9891  -40.6894 C.2       9 UNK         0.5513 
     57 N          21.0316  -28.6457  -39.4708 N.am      9 UNK        -0.7519 
     58 O          20.3240  -28.1239  -41.5023 O.2       9 UNK        -0.4960 
     59 C59        20.7333  -30.6911  -42.6112 C.3       10 UNK        -0.0876 
     60 S60        20.5768  -32.4214  -43.1749 S.3       10 UNK        -0.2414 
     61 C61        18.7675  -32.6822  -43.1325 C.3       10 UNK         0.0169 
     62 H62        15.3633  -22.5612  -45.0207 H         1 UNK         0.0903 
     63 H63        15.0688  -23.9481  -46.0714 H         1 UNK         0.0903 
     64 H64        13.7943  -23.3707  -44.9969 H         1 UNK         0.0903 
     65 H65        16.0268  -25.7995  -45.3170 H         1 UNK         0.3096 
     66 H66        16.9546  -27.3627  -44.0813 H         1 UNK         0.1121 
     67 H67        14.9024  -26.6862  -41.9218 H         1 UNK         0.0849 
     68 H68        15.8629  -28.1408  -41.9834 H         1 UNK         0.0849 
     69 H69        14.4626  -30.2231  -42.5096 H         1 UNK         0.0865 
     70 H70        13.8041  -30.4907  -44.1027 H         1 UNK         0.0865 
     71 H71        16.3264  -31.6903  -42.5075 H         1 UNK         0.1346 
     72 H72        19.3858  -31.3934  -45.4955 H         1 UNK         0.1412 
     73 H73        15.8543  -28.9982  -45.8148 H         1 UNK         0.1426 
     74 H74        17.4725  -29.1888  -47.6983 H         1 UNK         0.0716 
     75 H75        18.9569  -30.0909  -47.5255 H         1 UNK         0.0716 
     76 H76        20.5531  -29.2755  -45.1639 H         1 UNK         0.0695 
     77 H77        21.2553  -28.9789  -46.7324 H         1 UNK         0.0695 
     78 H78        21.7010  -26.5891  -46.0630 H         1 UNK         0.0983 
     79 H79        20.4222  -27.3697  -43.5139 H         1 UNK         0.3095 
     80 H80        20.1555  -25.5214  -41.8506 H         1 UNK         0.0454 
     81 H81        20.8734  -23.1522  -42.1628 H         1 UNK         0.0851 
     82 H82        19.6629  -22.9234  -43.4191 H         1 UNK         0.0851 
     83 H83        19.1658  -23.2251  -41.7556 H         1 UNK         0.0851 
     84 H84        18.4600  -25.3303  -44.2660 H         1 UNK         0.2976 
     85 H85        23.3665  -28.1304  -46.8783 H         1 UNK         0.3116 
     86 H86        25.6947  -27.3864  -45.7634 H         1 UNK         0.0646 
     87 H87        26.7578  -28.9165  -47.4447 H         1 UNK         0.0847 
     88 H88        25.4070  -28.0326  -48.1268 H         1 UNK         0.0847 
     89 H89        25.2174  -29.7290  -47.6783 H         1 UNK         0.0847 
     90 H90        24.0605  -30.2635  -44.6572 H         1 UNK         0.3040 
     91 H91        26.3788  -31.5908  -43.5482 H         1 UNK         0.1015 
     92 H92        24.1789  -32.7514  -44.0153 H         1 UNK         0.0786 
     93 H93        23.4534  -31.8482  -42.6852 H         1 UNK         0.0786 
     94 H94        24.7548  -32.9827  -42.3743 H         1 UNK         0.0786 
     95 H95        24.4708  -28.8669  -42.5526 H         1 UNK         0.3172 
     96 H96        24.5631  -27.3634  -41.0052 H         1 UNK         0.0595 
     97 H97        26.9403  -27.2157  -41.6570 H         1 UNK         0.0839 
     98 H98        27.3878  -28.3949  -40.4263 H         1 UNK         0.0839 
     99 H99        26.7497  -26.8275  -39.9546 H         1 UNK         0.0839 
    100 H100       25.8350  -30.3294  -39.4868 H         1 UNK         0.2998 
    101 H101       24.7158  -29.5972  -36.8383 H         1 UNK         0.0822 
    102 H102       26.9563  -30.6348  -36.9007 H         1 UNK         0.0787 
    103 H103       25.8227  -31.7166  -36.1085 H         1 UNK         0.0787 
    104 H104       26.3311  -32.0383  -37.7615 H         1 UNK         0.0787 
    105 H105       24.4164  -32.2860  -39.2147 H         1 UNK         0.3055 
    106 H106       22.0989  -33.4304  -37.9296 H         1 UNK         0.1106 
    107 H107       23.3075  -33.9678  -40.6986 H         1 UNK         0.0828 
    108 H108       23.7539  -34.7980  -39.2065 H         1 UNK         0.0828 
    109 H109       22.1394  -34.9824  -39.8697 H         1 UNK         0.0828 
    110 H110       22.5054  -30.9521  -40.3215 H         1 UNK         0.2931 
    111 H111       19.5755  -30.8030  -40.8137 H         1 UNK         0.0412 
    112 H112       21.0849  -27.6688  -39.2303 H         1 UNK         0.3472 
    113 H113       21.2863  -29.3439  -38.7900 H         1 UNK         0.3472 
    114 H114       21.6969  -30.3076  -42.9492 H         1 UNK         0.0970 
    115 H115       19.9854  -30.0904  -43.1264 H         1 UNK         0.0970 
    116 H116       18.4568  -32.6961  -42.0865 H         1 UNK         0.0612 
    117 H117       18.5505  -33.6733  -43.5322 H         1 UNK         0.0612 
@<TRIPOS>BOND
     1    1    2 1    
     2    1   62 1    
     3    1   63 1    
     4    1   64 1    
     5    2    3 2    
     6    2    4 am   BACKBONE|DICT|INTERRES
     7    4    5 1    
     8    4   65 1    
     9    5    6 1    
    10    5   25 1    
    11    5   66 1    
    12    6    7 1    
    13    6   67 1    
    14    6   68 1    
    15    7    8 1    
    16    8    9 1    
    17    8   69 1    
    18    8   70 1    
    19    9   10 ar   
    20    9   14 ar   
    21   10   11 ar   
    22   10   71 1    
    23   11   12 ar   
    24   11   61 1    
    25   12   13 ar   
    26   12   72 1    
    27   13   14 ar   
    28   13   15 1    
    29   14   73 1    
    30   15   16 1    
    31   15   74 1    
    32   15   75 1    
    33   16   17 1    
    34   17   18 1    
    35   17   76 1    
    36   17   77 1    
    37   18   19 1    
    38   18   27 1    
    39   18   78 1    
    40   19   20 am   BACKBONE|DICT|INTERRES
    41   19   79 1    
    42   20   21 2    
    43   20   22 1    
    44   22   23 1    
    45   22   24 1    
    46   22   80 1    
    47   23   81 1    
    48   23   82 1    
    49   23   83 1    
    50   24   25 am   BACKBONE|DICT|INTERRES
    51   24   84 1    
    52   25   26 2    
    53   27   28 2    
    54   27   29 am   BACKBONE|DICT|INTERRES
    55   29   30 1    
    56   29   85 1    
    57   30   31 1    
    58   30   32 1    
    59   30   86 1    
    60   31   87 1    
    61   31   88 1    
    62   31   89 1    
    63   32   33 2    
    64   32   34 am   BACKBONE|DICT|INTERRES
    65   34   35 1    
    66   34   90 1    
    67   35   36 1    
    68   35   37 1    
    69   35   91 1    
    70   36   92 1    
    71   36   93 1    
    72   36   94 1    
    73   37   38 2    
    74   37   39 am   BACKBONE|DICT|INTERRES
    75   39   40 1    
    76   39   95 1    
    77   40   41 1    
    78   40   42 1    
    79   40   96 1    
    80   41   97 1    
    81   41   98 1    
    82   41   99 1    
    83   42   43 2    
    84   42   44 am   BACKBONE|DICT|INTERRES
    85   44   45 1    
    86   44  100 1    
    87   45   46 1    
    88   45   47 1    
    89   45  101 1    
    90   46  102 1    
    91   46  103 1    
    92   46  104 1    
    93   47   48 2    
    94   47   49 am   BACKBONE|DICT|INTERRES
    95   49   50 1    
    96   49  105 1    
    97   50   51 1    
    98   50   52 1    
    99   50  106 1    
   100   51  107 1    
   101   51  108 1    
   102   51  109 1    
   103   52   53 2    
   104   52   54 am   BACKBONE|DICT|INTERRES
   105   54   55 1    
   106   54  110 1    
   107   55   56 1    
   108   55   59 1    
   109   55  111 1    
   110   56   57 am   BACKBONE|DICT|INTERRES
   111   56   58 2    
   112   57  112 1    
   113   57  113 1    
   114   59   60 1    
   115   59  114 1    
   116   59  115 1    
   117   60   61 1    
   118   61  116 1    
   119   61  117 1    
@<TRIPOS>SUBSTRUCTURE
     1 UNK         1 GROUP             0       ****    0 ROOT    
