@<TRIPOS>MOLECULE
3R8
117   119    1
SMALL
USER_CHARGES


@<TRIPOS>ATOM
      1 CA         14.0147  -25.0497  -39.3542 C.3       0 UNK        -0.2013 
      2 C          14.9766  -25.2626  -40.5137 C.2       0 UNK         0.4866 
      3 O          15.5873  -24.3032  -40.9864 O.2       0 UNK        -0.5176 
      4 N          15.1099  -26.5102  -40.9814 N.am      1 UNK        -0.4884 
      5 CA         16.0452  -26.9071  -42.0385 C.3       1 UNK         0.0853 
      6 C6         15.6423  -28.2752  -42.6479 C.3       10 UNK        -0.0849 
      7 S7         16.3388  -28.5400  -44.3155 S.3       10 UNK        -0.2776 
      8 C8         16.4083  -30.3672  -44.4244 C.3       10 UNK         0.0316 
      9 C9         17.8052  -30.9813  -44.5747 C.ar      10 UNK        -0.0863 
     10 C10        17.8972  -32.3504  -44.8564 C.ar      10 UNK        -0.1009 
     11 C11        19.1400  -32.9675  -45.0328 C.ar      10 UNK        -0.0712 
     12 C12        20.3059  -32.2076  -44.9135 C.ar      10 UNK        -0.0894 
     13 C13        20.2368  -30.8459  -44.6140 C.ar      10 UNK        -0.0745 
     14 C14        18.9879  -30.2371  -44.4506 C.ar      10 UNK        -0.0972 
     15 C15        21.5108  -30.0400  -44.4205 C.3       10 UNK         0.0209 
     16 S16        21.8735  -29.0138  -45.8768 S.3       10 UNK        -0.2568 
     17 C17        23.2277  -27.9791  -45.2300 C.3       10 UNK        -0.0983 
     18 CA         22.7255  -26.5967  -44.7407 C.3       3 UNK         0.0876 
     19 N          21.8649  -26.7301  -43.5657 N.am      3 UNK        -0.4424 
     20 C          20.5738  -26.4029  -43.5107 C.2       2 UNK         0.4918 
     21 O          19.9264  -25.9669  -44.4673 O.2       2 UNK        -0.4875 
     22 CA         19.8890  -26.5867  -42.1510 C.3       2 UNK         0.0481 
     23 CB         20.3114  -25.4765  -41.1687 C.3       2 UNK        -0.1831 
     24 N          18.4464  -26.5682  -42.3739 N.am      2 UNK        -0.4498 
     25 C          17.4946  -26.9183  -41.5048 C.2       1 UNK         0.5027 
     26 O          17.7189  -27.2731  -40.3443 O.2       1 UNK        -0.4969 
     27 C          23.9097  -25.6944  -44.3565 C.2       3 UNK         0.5005 
     28 O          24.1829  -25.5148  -43.1672 O.2       3 UNK        -0.5279 
     29 N          24.6156  -25.1626  -45.3605 N.am      4 UNK        -0.4463 
     30 CA         25.8647  -24.4208  -45.1877 C.3       4 UNK         0.0283 
     31 CB         26.0052  -23.4069  -46.3380 C.3       4 UNK        -0.1875 
     32 C          27.0373  -25.4234  -45.1851 C.2       4 UNK         0.4949 
     33 O          27.3591  -25.9349  -46.2570 O.2       4 UNK        -0.5039 
     34 N          27.6775  -25.7523  -44.0550 N.am      5 UNK        -0.4663 
     35 CA         27.3897  -25.3871  -42.6679 C.3       5 UNK         0.0242 
     36 CB         28.5375  -24.5117  -42.1321 C.3       5 UNK        -0.1982 
     37 C          27.2415  -26.6998  -41.8875 C.2       5 UNK         0.5017 
     38 O          28.2438  -27.2441  -41.4195 O.2       5 UNK        -0.5012 
     39 N          26.0106  -27.2194  -41.8188 N.am      6 UNK        -0.4439 
     40 CA         25.6754  -28.4974  -41.1935 C.3       6 UNK         0.0297 
     41 CB         25.9957  -29.6556  -42.1578 C.3       6 UNK        -0.2006 
     42 C          24.1973  -28.5271  -40.7871 C.2       6 UNK         0.4892 
     43 O          23.3706  -27.8424  -41.3958 O.2       6 UNK        -0.5089 
     44 N          23.8949  -29.3513  -39.7774 N.am      7 UNK        -0.4243 
     45 CA         22.5386  -29.6398  -39.3102 C.3       7 UNK         0.0196 
     46 CB         22.6222  -30.3067  -37.9267 C.3       7 UNK        -0.2007 
     47 C          21.7734  -30.5383  -40.2975 C.2       7 UNK         0.5020 
     48 O          22.3864  -31.2340  -41.1112 O.2       7 UNK        -0.5147 
     49 N          20.4409  -30.5137  -40.1930 N.am      8 UNK        -0.4734 
     50 CA         19.5371  -31.2997  -41.0315 C.3       8 UNK         0.0238 
     51 CB         18.1304  -30.6905  -40.9607 C.3       8 UNK        -0.1912 
     52 C          19.4994  -32.7921  -40.6756 C.2       8 UNK         0.5038 
     53 O          19.8460  -33.1772  -39.5563 O.2       8 UNK        -0.5046 
     54 N          19.0255  -33.5889  -41.6406 N.am      9 UNK        -0.4200 
     55 CA         18.8095  -35.0392  -41.5283 C.3       9 UNK         0.0839 
     56 C          17.6843  -35.4650  -40.5387 C.2       9 UNK         0.5513 
     57 N          16.8118  -34.5702  -40.0902 N.am      9 UNK        -0.7519 
     58 O          17.6040  -36.6345  -40.1722 O.2       9 UNK        -0.4960 
     59 C59        18.5728  -35.6815  -42.9204 C.3       10 UNK        -0.0876 
     60 S60        19.9756  -35.4451  -44.0644 S.3       10 UNK        -0.2414 
     61 C61        19.2336  -34.4440  -45.3946 C.3       10 UNK         0.0169 
     62 H62        14.5480  -24.6443  -38.4947 H         1 UNK         0.0903 
     63 H63        13.5331  -25.9779  -39.0472 H         1 UNK         0.0903 
     64 H64        13.2363  -24.3417  -39.6373 H         1 UNK         0.0903 
     65 H65        14.6115  -27.2636  -40.5293 H         1 UNK         0.3096 
     66 H66        15.9780  -26.1498  -42.8238 H         1 UNK         0.1121 
     67 H67        15.9114  -29.0950  -41.9806 H         1 UNK         0.0849 
     68 H68        14.5575  -28.3276  -42.7560 H         1 UNK         0.0849 
     69 H69        15.9181  -30.8138  -43.5588 H         1 UNK         0.0865 
     70 H70        15.8098  -30.6615  -45.2880 H         1 UNK         0.0865 
     71 H71        16.9929  -32.9353  -44.9601 H         1 UNK         0.1346 
     72 H72        21.2688  -32.6825  -45.0459 H         1 UNK         0.1412 
     73 H73        18.9555  -29.1816  -44.2217 H         1 UNK         0.1426 
     74 H74        22.3585  -30.6987  -44.2241 H         1 UNK         0.0716 
     75 H75        21.4057  -29.4138  -43.5343 H         1 UNK         0.0716 
     76 H76        23.7455  -28.5107  -44.4297 H         1 UNK         0.0695 
     77 H77        23.9544  -27.8638  -46.0364 H         1 UNK         0.0695 
     78 H78        22.1890  -26.1017  -45.5533 H         1 UNK         0.0983 
     79 H79        22.3524  -27.0212  -42.7186 H         1 UNK         0.3095 
     80 H80        20.1711  -27.5628  -41.7500 H         1 UNK         0.0454 
     81 H81        20.0249  -24.4890  -41.5322 H         1 UNK         0.0851 
     82 H82        19.8615  -25.6150  -40.1860 H         1 UNK         0.0851 
     83 H83        21.3929  -25.4715  -41.0248 H         1 UNK         0.0851 
     84 H84        18.1944  -26.3195  -43.3242 H         1 UNK         0.2976 
     85 H85        24.3597  -25.3862  -46.3123 H         1 UNK         0.3116 
     86 H86        25.8361  -23.8334  -44.2716 H         1 UNK         0.0646 
     87 H87        26.9382  -22.8486  -46.2506 H         1 UNK         0.0847 
     88 H88        25.1925  -22.6805  -46.3258 H         1 UNK         0.0847 
     89 H89        26.0055  -23.8893  -47.3164 H         1 UNK         0.0847 
     90 H90        28.4134  -26.4401  -44.1400 H         1 UNK         0.3040 
     91 H91        26.4677  -24.8255  -42.5445 H         1 UNK         0.1015 
     92 H92        28.5956  -23.5660  -42.6712 H         1 UNK         0.0786 
     93 H93        29.5060  -25.0054  -42.2223 H         1 UNK         0.0786 
     94 H94        28.3875  -24.2756  -41.0777 H         1 UNK         0.0786 
     95 H95        25.2211  -26.6982  -42.2046 H         1 UNK         0.3172 
     96 H96        26.2733  -28.6107  -40.2864 H         1 UNK         0.0595 
     97 H97        25.7252  -30.6183  -41.7219 H         1 UNK         0.0839 
     98 H98        27.0592  -29.6971  -42.3934 H         1 UNK         0.0839 
     99 H99        25.4492  -29.5600  -43.0960 H         1 UNK         0.0839 
    100 H100       24.6338  -29.9060  -39.3705 H         1 UNK         0.2998 
    101 H101       22.0002  -28.6939  -39.2153 H         1 UNK         0.0822 
    102 H102       23.1495  -31.2608  -37.9706 H         1 UNK         0.0787 
    103 H103       23.1388  -29.6693  -37.2087 H         1 UNK         0.0787 
    104 H104       21.6279  -30.5047  -37.5240 H         1 UNK         0.0787 
    105 H105       20.0142  -29.9541  -39.4686 H         1 UNK         0.3055 
    106 H106       19.8985  -31.2278  -42.0543 H         1 UNK         0.1106 
    107 H107       17.7620  -30.6261  -39.9362 H         1 UNK         0.0828 
    108 H108       18.1359  -29.6897  -41.3850 H         1 UNK         0.0828 
    109 H109       17.4088  -31.2731  -41.5339 H         1 UNK         0.0828 
    110 H110       18.7858  -33.1842  -42.5344 H         1 UNK         0.2931 
    111 H111       19.7326  -35.4608  -41.1255 H         1 UNK         0.0412 
    112 H112       16.8691  -33.6076  -40.3782 H         1 UNK         0.3472 
    113 H113       16.0916  -34.8634  -39.4485 H         1 UNK         0.3472 
    114 H114       17.6560  -35.2932  -43.3676 H         1 UNK         0.0970 
    115 H115       18.4225  -36.7585  -42.8215 H         1 UNK         0.0970 
    116 H116       18.2562  -34.8497  -45.6603 H         1 UNK         0.0612 
    117 H117       19.8533  -34.5449  -46.2867 H         1 UNK         0.0612 
@<TRIPOS>BOND
     1    1    2 1    
     2    1   62 1    
     3    1   63 1    
     4    1   64 1    
     5    2    3 2    
     6    2    4 am   BACKBONE|DICT|INTERRES
     7    4    5 1    
     8    4   65 1    
     9    5    6 1    
    10    5   25 1    
    11    5   66 1    
    12    6    7 1    
    13    6   67 1    
    14    6   68 1    
    15    7    8 1    
    16    8    9 1    
    17    8   69 1    
    18    8   70 1    
    19    9   10 ar   
    20    9   14 ar   
    21   10   11 ar   
    22   10   71 1    
    23   11   12 ar   
    24   11   61 1    
    25   12   13 ar   
    26   12   72 1    
    27   13   14 ar   
    28   13   15 1    
    29   14   73 1    
    30   15   16 1    
    31   15   74 1    
    32   15   75 1    
    33   16   17 1    
    34   17   18 1    
    35   17   76 1    
    36   17   77 1    
    37   18   19 1    
    38   18   27 1    
    39   18   78 1    
    40   19   20 am   BACKBONE|DICT|INTERRES
    41   19   79 1    
    42   20   21 2    
    43   20   22 1    
    44   22   23 1    
    45   22   24 1    
    46   22   80 1    
    47   23   81 1    
    48   23   82 1    
    49   23   83 1    
    50   24   25 am   BACKBONE|DICT|INTERRES
    51   24   84 1    
    52   25   26 2    
    53   27   28 2    
    54   27   29 am   BACKBONE|DICT|INTERRES
    55   29   30 1    
    56   29   85 1    
    57   30   31 1    
    58   30   32 1    
    59   30   86 1    
    60   31   87 1    
    61   31   88 1    
    62   31   89 1    
    63   32   33 2    
    64   32   34 am   BACKBONE|DICT|INTERRES
    65   34   35 1    
    66   34   90 1    
    67   35   36 1    
    68   35   37 1    
    69   35   91 1    
    70   36   92 1    
    71   36   93 1    
    72   36   94 1    
    73   37   38 2    
    74   37   39 am   BACKBONE|DICT|INTERRES
    75   39   40 1    
    76   39   95 1    
    77   40   41 1    
    78   40   42 1    
    79   40   96 1    
    80   41   97 1    
    81   41   98 1    
    82   41   99 1    
    83   42   43 2    
    84   42   44 am   BACKBONE|DICT|INTERRES
    85   44   45 1    
    86   44  100 1    
    87   45   46 1    
    88   45   47 1    
    89   45  101 1    
    90   46  102 1    
    91   46  103 1    
    92   46  104 1    
    93   47   48 2    
    94   47   49 am   BACKBONE|DICT|INTERRES
    95   49   50 1    
    96   49  105 1    
    97   50   51 1    
    98   50   52 1    
    99   50  106 1    
   100   51  107 1    
   101   51  108 1    
   102   51  109 1    
   103   52   53 2    
   104   52   54 am   BACKBONE|DICT|INTERRES
   105   54   55 1    
   106   54  110 1    
   107   55   56 1    
   108   55   59 1    
   109   55  111 1    
   110   56   57 am   BACKBONE|DICT|INTERRES
   111   56   58 2    
   112   57  112 1    
   113   57  113 1    
   114   59   60 1    
   115   59  114 1    
   116   59  115 1    
   117   60   61 1    
   118   61  116 1    
   119   61  117 1    
@<TRIPOS>SUBSTRUCTURE
     1 UNK         1 GROUP             0       ****    0 ROOT    
