@<TRIPOS>MOLECULE
3R8
117   119    1
SMALL
USER_CHARGES


@<TRIPOS>ATOM
      1 CA         13.4392  -22.4142  -46.5749 C.3       0 UNK        -0.2013 
      2 C          14.8173  -22.9298  -46.1884 C.2       0 UNK         0.4866 
      3 O          15.7173  -22.1329  -45.9202 O.2       0 UNK        -0.5176 
      4 N          14.9930  -24.2563  -46.1668 N.am      1 UNK        -0.4884 
      5 CA         16.2204  -24.9378  -45.7449 C.3       1 UNK         0.0853 
      6 C6         16.2655  -26.4126  -46.2334 C.3       10 UNK        -0.0849 
      7 S7         14.7423  -27.3644  -45.8956 S.3       10 UNK        -0.2776 
      8 C8         15.2198  -29.0341  -46.4542 C.3       10 UNK         0.0316 
      9 C9         16.1396  -29.7570  -45.4751 C.ar      10 UNK        -0.0863 
     10 C10        17.3069  -30.3795  -45.9308 C.ar      10 UNK        -0.1009 
     11 C11        18.1328  -31.0893  -45.0507 C.ar      10 UNK        -0.0712 
     12 C12        17.7738  -31.1733  -43.7003 C.ar      10 UNK        -0.0894 
     13 C13        16.6312  -30.5249  -43.2251 C.ar      10 UNK        -0.0745 
     14 C14        15.8076  -29.8385  -44.1196 C.ar      10 UNK        -0.0972 
     15 C15        16.3004  -30.5323  -41.7410 C.3       10 UNK         0.0209 
     16 S16        16.6633  -28.9168  -40.9786 S.3       10 UNK        -0.2568 
     17 C17        18.4900  -28.8810  -40.9987 C.3       10 UNK        -0.0983 
     18 CA         19.0943  -28.2019  -42.2630 C.3       3 UNK         0.0876 
     19 N          18.5570  -26.8688  -42.5632 N.am      3 UNK        -0.4424 
     20 C          18.6545  -25.7668  -41.8073 C.2       2 UNK         0.4918 
     21 O          19.1720  -25.7431  -40.6905 O.2       2 UNK        -0.4875 
     22 CA         18.1095  -24.4555  -42.4098 C.3       2 UNK         0.0481 
     23 CB         19.1680  -23.3404  -42.3328 C.3       2 UNK        -0.1831 
     24 N          17.6873  -24.6006  -43.8097 N.am      2 UNK        -0.4498 
     25 C          16.4296  -24.8181  -44.2185 C.2       1 UNK         0.5027 
     26 O          15.4699  -24.9360  -43.4525 O.2       1 UNK        -0.4969 
     27 C          20.6396  -28.2231  -42.2800 C.2       3 UNK         0.5005 
     28 O          21.2550  -28.9315  -41.4829 O.2       3 UNK        -0.5279 
     29 N          21.2332  -27.4549  -43.2089 N.am      4 UNK        -0.4463 
     30 CA         22.6714  -27.3264  -43.4708 C.3       4 UNK         0.0283 
     31 CB         23.2206  -28.6308  -44.0960 C.3       4 UNK        -0.1875 
     32 C          23.4635  -26.8263  -42.2425 C.2       4 UNK         0.4949 
     33 O          22.9813  -25.9489  -41.5240 O.2       4 UNK        -0.5039 
     34 N          24.6723  -27.3599  -42.0455 N.am      5 UNK        -0.4663 
     35 CA         25.5989  -27.0579  -40.9586 C.3       5 UNK         0.0242 
     36 CB         26.3392  -25.7378  -41.2521 C.3       5 UNK        -0.1982 
     37 C          26.5766  -28.2347  -40.8310 C.2       5 UNK         0.5017 
     38 O          26.5383  -29.1446  -41.6667 O.2       5 UNK        -0.5012 
     39 N          27.4323  -28.1980  -39.7987 N.am      6 UNK        -0.4439 
     40 CA         28.4656  -29.1889  -39.4646 C.3       6 UNK         0.0297 
     41 CB         29.5926  -29.1941  -40.5225 C.3       6 UNK        -0.2006 
     42 C          27.8618  -30.5810  -39.2021 C.2       6 UNK         0.4892 
     43 O          27.4312  -30.8446  -38.0790 O.2       6 UNK        -0.5089 
     44 N          27.8083  -31.4249  -40.2425 N.am      7 UNK        -0.4243 
     45 CA         27.1152  -32.7164  -40.2441 C.3       7 UNK         0.0196 
     46 CB         27.5103  -33.5001  -41.5062 C.3       7 UNK        -0.2007 
     47 C          25.5830  -32.5822  -40.1553 C.2       7 UNK         0.5020 
     48 O          24.9282  -33.5273  -39.7156 O.2       7 UNK        -0.5147 
     49 N          25.0449  -31.4244  -40.5737 N.am      8 UNK        -0.4734 
     50 CA         23.6403  -31.0031  -40.4723 C.3       8 UNK         0.0238 
     51 CB         23.2892  -30.6825  -39.0047 C.3       8 UNK        -0.1912 
     52 C          22.6533  -31.9927  -41.1232 C.2       8 UNK         0.5038 
     53 O          21.6265  -32.3271  -40.5283 O.2       8 UNK        -0.5046 
     54 N          23.0201  -32.4722  -42.3200 N.am      9 UNK        -0.4200 
     55 CA         22.3102  -33.4972  -43.1059 C.3       9 UNK         0.0839 
     56 C          22.3383  -34.9292  -42.4850 C.2       9 UNK         0.5513 
     57 N          23.1119  -35.1993  -41.4396 N.am      9 UNK        -0.7519 
     58 O          21.6718  -35.8312  -42.9863 O.2       9 UNK        -0.4960 
     59 C59        20.8755  -33.0634  -43.5298 C.3       10 UNK        -0.0876 
     60 S60        20.8643  -31.5306  -44.5275 S.3       10 UNK        -0.2414 
     61 C61        19.3923  -31.7707  -45.5836 C.3       10 UNK         0.0169 
     62 H62        12.7475  -23.2266  -46.7972 H         1 UNK         0.0903 
     63 H63        13.0182  -21.8237  -45.7616 H         1 UNK         0.0903 
     64 H64        13.5099  -21.7783  -47.4570 H         1 UNK         0.0903 
     65 H65        14.2137  -24.8713  -46.3581 H         1 UNK         0.3096 
     66 H66        17.0509  -24.4159  -46.2266 H         1 UNK         0.1121 
     67 H67        17.1216  -26.9407  -45.8089 H         1 UNK         0.0849 
     68 H68        16.4235  -26.4232  -47.3131 H         1 UNK         0.0849 
     69 H69        15.6751  -28.9634  -47.4433 H         1 UNK         0.0865 
     70 H70        14.3149  -29.6305  -46.5774 H         1 UNK         0.0865 
     71 H71        17.5674  -30.3231  -46.9792 H         1 UNK         0.1346 
     72 H72        18.4004  -31.7111  -43.0057 H         1 UNK         0.1412 
     73 H73        14.9149  -29.3492  -43.7535 H         1 UNK         0.1426 
     74 H74        16.8476  -31.3182  -41.2180 H         1 UNK         0.0716 
     75 H75        15.2409  -30.7560  -41.6083 H         1 UNK         0.0716 
     76 H76        18.8567  -29.9050  -40.9054 H         1 UNK         0.0695 
     77 H77        18.8224  -28.3637  -40.0974 H         1 UNK         0.0695 
     78 H78        18.8150  -28.8084  -43.1218 H         1 UNK         0.0983 
     79 H79        18.0700  -26.7851  -43.4421 H         1 UNK         0.3095 
     80 H80        17.2591  -24.1506  -41.7967 H         1 UNK         0.0454 
     81 H81        20.0739  -23.6026  -42.8808 H         1 UNK         0.0851 
     82 H82        19.4594  -23.1454  -41.2998 H         1 UNK         0.0851 
     83 H83        18.7877  -22.4032  -42.7392 H         1 UNK         0.0851 
     84 H84        18.4153  -24.5018  -44.5040 H         1 UNK         0.2976 
     85 H85        20.6376  -26.8770  -43.7833 H         1 UNK         0.3116 
     86 H86        22.7694  -26.5411  -44.2217 H         1 UNK         0.0646 
     87 H87        23.2050  -29.4615  -43.3904 H         1 UNK         0.0847 
     88 H88        24.2450  -28.5092  -44.4498 H         1 UNK         0.0847 
     89 H89        22.6270  -28.9281  -44.9605 H         1 UNK         0.0847 
     90 H90        24.9943  -28.1071  -42.6492 H         1 UNK         0.3040 
     91 H91        25.0390  -26.9740  -40.0245 H         1 UNK         0.1015 
     92 H92        26.9222  -25.8011  -42.1718 H         1 UNK         0.0786 
     93 H93        27.0264  -25.4777  -40.4464 H         1 UNK         0.0786 
     94 H94        25.6431  -24.9053  -41.3563 H         1 UNK         0.0786 
     95 H95        27.3577  -27.4246  -39.1518 H         1 UNK         0.3172 
     96 H96        28.9102  -28.8653  -38.5220 H         1 UNK         0.0595 
     97 H97        29.2289  -29.4114  -41.5271 H         1 UNK         0.0839 
     98 H98        30.3536  -29.9372  -40.2801 H         1 UNK         0.0839 
     99 H99        30.0930  -28.2265  -40.5610 H         1 UNK         0.0839 
    100 H100       28.1521  -31.0933  -41.1328 H         1 UNK         0.2998 
    101 H101       27.4458  -33.2800  -39.3690 H         1 UNK         0.0822 
    102 H102       28.5862  -33.6712  -41.5466 H         1 UNK         0.0787 
    103 H103       27.0273  -34.4783  -41.5251 H         1 UNK         0.0787 
    104 H104       27.2182  -32.9747  -42.4164 H         1 UNK         0.0787 
    105 H105       25.6788  -30.7294  -40.9603 H         1 UNK         0.3055 
    106 H106       23.5570  -30.0739  -41.0366 H         1 UNK         0.1106 
    107 H107       22.2875  -30.2566  -38.9301 H         1 UNK         0.0828 
    108 H108       23.3140  -31.5755  -38.3793 H         1 UNK         0.0828 
    109 H109       23.9819  -29.9554  -38.5811 H         1 UNK         0.0828 
    110 H110       23.8995  -32.1623  -42.7057 H         1 UNK         0.2931 
    111 H111       22.8937  -33.5951  -44.0220 H         1 UNK         0.0412 
    112 H112       23.1205  -36.1362  -41.0690 H         1 UNK         0.3472 
    113 H113       23.6587  -34.4773  -40.9836 H         1 UNK         0.3472 
    114 H114       20.4073  -33.8557  -44.1156 H         1 UNK         0.0970 
    115 H115       20.2437  -32.9298  -42.6521 H         1 UNK         0.0970 
    116 H116       19.6374  -31.3723  -46.5693 H         1 UNK         0.0612 
    117 H117       19.1911  -32.8319  -45.7317 H         1 UNK         0.0612 
@<TRIPOS>BOND
     1    1    2 1    
     2    1   62 1    
     3    1   63 1    
     4    1   64 1    
     5    2    3 2    
     6    2    4 am   BACKBONE|DICT|INTERRES
     7    4    5 1    
     8    4   65 1    
     9    5    6 1    
    10    5   25 1    
    11    5   66 1    
    12    6    7 1    
    13    6   67 1    
    14    6   68 1    
    15    7    8 1    
    16    8    9 1    
    17    8   69 1    
    18    8   70 1    
    19    9   10 ar   
    20    9   14 ar   
    21   10   11 ar   
    22   10   71 1    
    23   11   12 ar   
    24   11   61 1    
    25   12   13 ar   
    26   12   72 1    
    27   13   14 ar   
    28   13   15 1    
    29   14   73 1    
    30   15   16 1    
    31   15   74 1    
    32   15   75 1    
    33   16   17 1    
    34   17   18 1    
    35   17   76 1    
    36   17   77 1    
    37   18   19 1    
    38   18   27 1    
    39   18   78 1    
    40   19   20 am   BACKBONE|DICT|INTERRES
    41   19   79 1    
    42   20   21 2    
    43   20   22 1    
    44   22   23 1    
    45   22   24 1    
    46   22   80 1    
    47   23   81 1    
    48   23   82 1    
    49   23   83 1    
    50   24   25 am   BACKBONE|DICT|INTERRES
    51   24   84 1    
    52   25   26 2    
    53   27   28 2    
    54   27   29 am   BACKBONE|DICT|INTERRES
    55   29   30 1    
    56   29   85 1    
    57   30   31 1    
    58   30   32 1    
    59   30   86 1    
    60   31   87 1    
    61   31   88 1    
    62   31   89 1    
    63   32   33 2    
    64   32   34 am   BACKBONE|DICT|INTERRES
    65   34   35 1    
    66   34   90 1    
    67   35   36 1    
    68   35   37 1    
    69   35   91 1    
    70   36   92 1    
    71   36   93 1    
    72   36   94 1    
    73   37   38 2    
    74   37   39 am   BACKBONE|DICT|INTERRES
    75   39   40 1    
    76   39   95 1    
    77   40   41 1    
    78   40   42 1    
    79   40   96 1    
    80   41   97 1    
    81   41   98 1    
    82   41   99 1    
    83   42   43 2    
    84   42   44 am   BACKBONE|DICT|INTERRES
    85   44   45 1    
    86   44  100 1    
    87   45   46 1    
    88   45   47 1    
    89   45  101 1    
    90   46  102 1    
    91   46  103 1    
    92   46  104 1    
    93   47   48 2    
    94   47   49 am   BACKBONE|DICT|INTERRES
    95   49   50 1    
    96   49  105 1    
    97   50   51 1    
    98   50   52 1    
    99   50  106 1    
   100   51  107 1    
   101   51  108 1    
   102   51  109 1    
   103   52   53 2    
   104   52   54 am   BACKBONE|DICT|INTERRES
   105   54   55 1    
   106   54  110 1    
   107   55   56 1    
   108   55   59 1    
   109   55  111 1    
   110   56   57 am   BACKBONE|DICT|INTERRES
   111   56   58 2    
   112   57  112 1    
   113   57  113 1    
   114   59   60 1    
   115   59  114 1    
   116   59  115 1    
   117   60   61 1    
   118   61  116 1    
   119   61  117 1    
@<TRIPOS>SUBSTRUCTURE
     1 UNK         1 GROUP             0       ****    0 ROOT    
