@<TRIPOS>MOLECULE
3R8
117   119    1
SMALL
USER_CHARGES


@<TRIPOS>ATOM
      1 CA         20.2460  -25.4842  -39.8698 C.3       0 UNK        -0.2013 
      2 C          19.7068  -25.9276  -41.2202 C.2       0 UNK         0.4866 
      3 O          20.3166  -26.7779  -41.8725 O.2       0 UNK        -0.5176 
      4 N          18.5699  -25.3426  -41.6237 N.am      1 UNK        -0.4884 
      5 CA         17.8977  -25.4815  -42.9225 C.3       1 UNK         0.0853 
      6 C6         17.5998  -26.9585  -43.3055 C.3       10 UNK        -0.0849 
      7 S7         16.1517  -27.1178  -44.4067 S.3       10 UNK        -0.2776 
      8 C8         15.8143  -28.9051  -44.3126 C.3       10 UNK         0.0316 
      9 C9         17.0061  -29.7467  -44.7504 C.ar      10 UNK        -0.0863 
     10 C10        17.5796  -30.6639  -43.8650 C.ar      10 UNK        -0.1009 
     11 C11        18.6641  -31.4602  -44.2594 C.ar      10 UNK        -0.0712 
     12 C12        19.1857  -31.2984  -45.5474 C.ar      10 UNK        -0.0894 
     13 C13        18.6247  -30.3836  -46.4437 C.ar      10 UNK        -0.0745 
     14 C14        17.5230  -29.6227  -46.0428 C.ar      10 UNK        -0.0972 
     15 C15        19.1928  -30.2486  -47.8527 C.3       10 UNK         0.0209 
     16 S16        19.5746  -28.5269  -48.3156 S.3       10 UNK        -0.2568 
     17 C17        20.8938  -28.1092  -47.1273 C.3       10 UNK        -0.0983 
     18 CA         21.1790  -26.5868  -47.0859 C.3       3 UNK         0.0876 
     19 N          19.9775  -25.8262  -46.7339 N.am      3 UNK        -0.4424 
     20 C          19.7891  -24.5222  -46.9701 C.2       2 UNK         0.4918 
     21 O          20.5885  -23.8102  -47.5778 O.2       2 UNK        -0.4875 
     22 CA         18.4992  -23.9017  -46.4018 C.3       2 UNK         0.0481 
     23 CB         17.4020  -23.8741  -47.4774 C.3       2 UNK        -0.1831 
     24 N          17.9879  -24.5866  -45.2070 N.am      2 UNK        -0.4498 
     25 C          18.6358  -24.7065  -44.0393 C.2       1 UNK         0.5027 
     26 O          19.7609  -24.2391  -43.8464 O.2       1 UNK        -0.4969 
     27 C          22.3668  -26.2908  -46.1421 C.2       3 UNK         0.5005 
     28 O          23.4940  -26.6506  -46.4857 O.2       3 UNK        -0.5279 
     29 N          22.1044  -25.6715  -44.9760 N.am      4 UNK        -0.4463 
     30 CA         23.0434  -25.3991  -43.8797 C.3       4 UNK         0.0283 
     31 CB         24.0869  -24.3415  -44.2968 C.3       4 UNK        -0.1875 
     32 C          23.6757  -26.6865  -43.3151 C.2       4 UNK         0.4949 
     33 O          24.8738  -26.7177  -43.0291 O.2       4 UNK        -0.5039 
     34 N          22.8524  -27.7358  -43.1894 N.am      5 UNK        -0.4663 
     35 CA         23.2538  -29.0529  -42.6987 C.3       5 UNK         0.0242 
     36 CB         22.2172  -30.0989  -43.1377 C.3       5 UNK        -0.1982 
     37 C          23.4370  -29.0654  -41.1758 C.2       5 UNK         0.5017 
     38 O          24.3984  -29.6629  -40.6905 O.2       5 UNK        -0.5012 
     39 N          22.5236  -28.3940  -40.4562 N.am      6 UNK        -0.4439 
     40 CA         22.5036  -28.2457  -38.9962 C.3       6 UNK         0.0297 
     41 CB         23.5753  -27.2197  -38.5590 C.3       6 UNK        -0.2006 
     42 C          22.5966  -29.6052  -38.2724 C.2       6 UNK         0.4892 
     43 O          21.7454  -30.4656  -38.5013 O.2       6 UNK        -0.5089 
     44 N          23.6371  -29.7891  -37.4484 N.am      7 UNK        -0.4243 
     45 CA         23.9218  -31.0065  -36.6846 C.3       7 UNK         0.0196 
     46 CB         25.0881  -30.7276  -35.7220 C.3       7 UNK        -0.2007 
     47 C          24.2173  -32.2541  -37.5395 C.2       7 UNK         0.5020 
     48 O          24.1254  -33.3633  -37.0130 O.2       7 UNK        -0.5147 
     49 N          24.5583  -32.0779  -38.8257 N.am      8 UNK        -0.4734 
     50 CA         24.7451  -33.1837  -39.7710 C.3       8 UNK         0.0238 
     51 CB         25.6073  -32.7171  -40.9557 C.3       8 UNK        -0.1912 
     52 C          23.4142  -33.7734  -40.2723 C.2       8 UNK         0.5038 
     53 O          23.4225  -34.8891  -40.7943 O.2       8 UNK        -0.5046 
     54 N          22.3073  -33.0312  -40.1225 N.am      9 UNK        -0.4200 
     55 CA         20.9546  -33.4906  -40.4521 C.3       9 UNK         0.0839 
     56 C          20.4308  -34.5108  -39.4048 C.2       9 UNK         0.5513 
     57 N          19.8116  -35.5971  -39.8458 N.am      9 UNK        -0.7519 
     58 O          20.5540  -34.3090  -38.1987 O.2       9 UNK        -0.4960 
     59 C59        19.9910  -32.2887  -40.6326 C.3       10 UNK        -0.0876 
     60 S60        18.5678  -32.7099  -41.6911 S.3       10 UNK        -0.2414 
     61 C61        19.2897  -32.5317  -43.3623 C.3       10 UNK         0.0169 
     62 H62        21.3338  -25.4426  -39.8935 H         1 UNK         0.0903 
     63 H63        19.8830  -24.4931  -39.5983 H         1 UNK         0.0903 
     64 H64        19.9378  -26.1828  -39.0934 H         1 UNK         0.0903 
     65 H65        18.1560  -24.6471  -41.0180 H         1 UNK         0.3096 
     66 H66        16.9432  -24.9697  -42.7859 H         1 UNK         0.1121 
     67 H67        17.3871  -27.5376  -42.4052 H         1 UNK         0.0849 
     68 H68        18.4678  -27.4347  -43.7664 H         1 UNK         0.0849 
     69 H69        15.5108  -29.1541  -43.2945 H         1 UNK         0.0865 
     70 H70        14.9612  -29.1386  -44.9512 H         1 UNK         0.0865 
     71 H71        17.1595  -30.7603  -42.8747 H         1 UNK         0.1346 
     72 H72        20.0247  -31.9056  -45.8597 H         1 UNK         0.1412 
     73 H73        17.0748  -28.9213  -46.7335 H         1 UNK         0.1426 
     74 H74        18.4661  -30.6480  -48.5612 H         1 UNK         0.0716 
     75 H75        20.0971  -30.8483  -47.9681 H         1 UNK         0.0716 
     76 H76        21.7893  -28.6638  -47.4146 H         1 UNK         0.0695 
     77 H77        20.6125  -28.4692  -46.1357 H         1 UNK         0.0695 
     78 H78        21.4925  -26.2759  -48.0852 H         1 UNK         0.0983 
     79 H79        19.2462  -26.3406  -46.2664 H         1 UNK         0.3095 
     80 H80        18.7279  -22.8722  -46.1192 H         1 UNK         0.0454 
     81 H81        16.5099  -23.3578  -47.1229 H         1 UNK         0.0851 
     82 H82        17.1101  -24.8797  -47.7832 H         1 UNK         0.0851 
     83 H83        17.7438  -23.3488  -48.3704 H         1 UNK         0.0851 
     84 H84        17.0797  -25.0259  -45.2902 H         1 UNK         0.2976 
     85 H85        21.1521  -25.3725  -44.7920 H         1 UNK         0.3116 
     86 H86        22.4490  -24.9736  -43.0695 H         1 UNK         0.0646 
     87 H87        24.7570  -24.7156  -45.0713 H         1 UNK         0.0847 
     88 H88        24.7049  -24.0473  -43.4478 H         1 UNK         0.0847 
     89 H89        23.6066  -23.4392  -44.6751 H         1 UNK         0.0847 
     90 H90        21.8663  -27.5892  -43.3640 H         1 UNK         0.3040 
     91 H91        24.2145  -29.3144  -43.1486 H         1 UNK         0.1015 
     92 H92        21.2182  -29.8578  -42.7718 H         1 UNK         0.0786 
     93 H93        22.4791  -31.0888  -42.7609 H         1 UNK         0.0786 
     94 H94        22.1633  -30.1701  -44.2243 H         1 UNK         0.0786 
     95 H95        21.7636  -27.9474  -40.9610 H         1 UNK         0.3172 
     96 H96        21.5264  -27.8415  -38.7356 H         1 UNK         0.0595 
     97 H97        24.5869  -27.5557  -38.7908 H         1 UNK         0.0839 
     98 H98        23.5223  -27.0199  -37.4879 H         1 UNK         0.0839 
     99 H99        23.4329  -26.2646  -39.0637 H         1 UNK         0.0839 
    100 H100       24.3006  -29.0342  -37.3521 H         1 UNK         0.2998 
    101 H101       23.0342  -31.2335  -36.0901 H         1 UNK         0.0822 
    102 H102       25.3062  -31.6024  -35.1074 H         1 UNK         0.0787 
    103 H103       26.0020  -30.4718  -36.2598 H         1 UNK         0.0787 
    104 H104       24.8559  -29.9078  -35.0418 H         1 UNK         0.0787 
    105 H105       24.6007  -31.1383  -39.2088 H         1 UNK         0.3055 
    106 H106       25.2834  -33.9869  -39.2621 H         1 UNK         0.1106 
    107 H107       25.0822  -31.9971  -41.5832 H         1 UNK         0.0828 
    108 H108       26.5366  -32.2576  -40.6188 H         1 UNK         0.0828 
    109 H109       25.8756  -33.5604  -41.5933 H         1 UNK         0.0828 
    110 H110       22.3676  -32.1553  -39.6163 H         1 UNK         0.2931 
    111 H111       21.0324  -34.0011  -41.4147 H         1 UNK         0.0412 
    112 H112       19.6875  -35.7572  -40.8335 H         1 UNK         0.3472 
    113 H113       19.4536  -36.2644  -39.1803 H         1 UNK         0.3472 
    114 H114       20.5079  -31.4393  -41.0800 H         1 UNK         0.0970 
    115 H115       19.6272  -31.9271  -39.6686 H         1 UNK         0.0970 
    116 H116       20.3614  -32.3480  -43.2856 H         1 UNK         0.0612 
    117 H117       19.1878  -33.4952  -43.8633 H         1 UNK         0.0612 
@<TRIPOS>BOND
     1    1    2 1    
     2    1   62 1    
     3    1   63 1    
     4    1   64 1    
     5    2    3 2    
     6    2    4 am   BACKBONE|DICT|INTERRES
     7    4    5 1    
     8    4   65 1    
     9    5    6 1    
    10    5   25 1    
    11    5   66 1    
    12    6    7 1    
    13    6   67 1    
    14    6   68 1    
    15    7    8 1    
    16    8    9 1    
    17    8   69 1    
    18    8   70 1    
    19    9   10 ar   
    20    9   14 ar   
    21   10   11 ar   
    22   10   71 1    
    23   11   12 ar   
    24   11   61 1    
    25   12   13 ar   
    26   12   72 1    
    27   13   14 ar   
    28   13   15 1    
    29   14   73 1    
    30   15   16 1    
    31   15   74 1    
    32   15   75 1    
    33   16   17 1    
    34   17   18 1    
    35   17   76 1    
    36   17   77 1    
    37   18   19 1    
    38   18   27 1    
    39   18   78 1    
    40   19   20 am   BACKBONE|DICT|INTERRES
    41   19   79 1    
    42   20   21 2    
    43   20   22 1    
    44   22   23 1    
    45   22   24 1    
    46   22   80 1    
    47   23   81 1    
    48   23   82 1    
    49   23   83 1    
    50   24   25 am   BACKBONE|DICT|INTERRES
    51   24   84 1    
    52   25   26 2    
    53   27   28 2    
    54   27   29 am   BACKBONE|DICT|INTERRES
    55   29   30 1    
    56   29   85 1    
    57   30   31 1    
    58   30   32 1    
    59   30   86 1    
    60   31   87 1    
    61   31   88 1    
    62   31   89 1    
    63   32   33 2    
    64   32   34 am   BACKBONE|DICT|INTERRES
    65   34   35 1    
    66   34   90 1    
    67   35   36 1    
    68   35   37 1    
    69   35   91 1    
    70   36   92 1    
    71   36   93 1    
    72   36   94 1    
    73   37   38 2    
    74   37   39 am   BACKBONE|DICT|INTERRES
    75   39   40 1    
    76   39   95 1    
    77   40   41 1    
    78   40   42 1    
    79   40   96 1    
    80   41   97 1    
    81   41   98 1    
    82   41   99 1    
    83   42   43 2    
    84   42   44 am   BACKBONE|DICT|INTERRES
    85   44   45 1    
    86   44  100 1    
    87   45   46 1    
    88   45   47 1    
    89   45  101 1    
    90   46  102 1    
    91   46  103 1    
    92   46  104 1    
    93   47   48 2    
    94   47   49 am   BACKBONE|DICT|INTERRES
    95   49   50 1    
    96   49  105 1    
    97   50   51 1    
    98   50   52 1    
    99   50  106 1    
   100   51  107 1    
   101   51  108 1    
   102   51  109 1    
   103   52   53 2    
   104   52   54 am   BACKBONE|DICT|INTERRES
   105   54   55 1    
   106   54  110 1    
   107   55   56 1    
   108   55   59 1    
   109   55  111 1    
   110   56   57 am   BACKBONE|DICT|INTERRES
   111   56   58 2    
   112   57  112 1    
   113   57  113 1    
   114   59   60 1    
   115   59  114 1    
   116   59  115 1    
   117   60   61 1    
   118   61  116 1    
   119   61  117 1    
@<TRIPOS>SUBSTRUCTURE
     1 UNK         1 GROUP             0       ****    0 ROOT    
