@<TRIPOS>MOLECULE
3R8
117   119    1
SMALL
USER_CHARGES


@<TRIPOS>ATOM
      1 CA         21.4687  -24.0773  -41.0483 C.3       0 UNK        -0.2013 
      2 C          20.6119  -25.0167  -41.8822 C.2       0 UNK         0.4866 
      3 O          21.1545  -25.8398  -42.6214 O.2       0 UNK        -0.5176 
      4 N          19.2809  -24.8964  -41.7722 N.am      1 UNK        -0.4884 
      5 CA         18.2756  -25.6431  -42.5479 C.3       1 UNK         0.0853 
      6 C6         18.3630  -27.1820  -42.3197 C.3       10 UNK        -0.0849 
      7 S7         16.7657  -28.0232  -42.5871 S.3       10 UNK        -0.2776 
      8 C8         17.2172  -29.7712  -42.3189 C.3       10 UNK         0.0316 
      9 C9         18.1301  -30.4120  -43.3693 C.ar      10 UNK        -0.0863 
     10 C10        18.7886  -31.5956  -43.0227 C.ar      10 UNK        -0.1009 
     11 C11        19.6161  -32.2533  -43.9343 C.ar      10 UNK        -0.0712 
     12 C12        19.7852  -31.7213  -45.2140 C.ar      10 UNK        -0.0894 
     13 C13        19.1203  -30.5515  -45.5956 C.ar      10 UNK        -0.0745 
     14 C14        18.2930  -29.9014  -44.6671 C.ar      10 UNK        -0.0972 
     15 C15        19.2517  -30.0711  -47.0416 C.3       10 UNK         0.0209 
     16 S16        19.3050  -28.2623  -47.2566 S.3       10 UNK        -0.2568 
     17 C17        20.9517  -27.8548  -46.5881 C.3       10 UNK        -0.0983 
     18 CA         21.3344  -26.3698  -46.8283 C.3       3 UNK         0.0876 
     19 N          20.3130  -25.4778  -46.2761 N.am      3 UNK        -0.4424 
     20 C          20.1761  -24.1630  -46.4706 C.2       2 UNK         0.4918 
     21 O          20.9153  -23.4995  -47.1970 O.2       2 UNK        -0.4875 
     22 CA         19.0454  -23.4576  -45.6906 C.3       2 UNK         0.0481 
     23 CB         17.7664  -23.3569  -46.5439 C.3       2 UNK        -0.1831 
     24 N          18.7701  -24.0327  -44.3595 N.am      2 UNK        -0.4498 
     25 C          18.2810  -25.2460  -44.0461 C.2       1 UNK         0.5027 
     26 O          17.9048  -26.0506  -44.8974 O.2       1 UNK        -0.4969 
     27 C          22.7463  -26.0947  -46.2650 C.2       3 UNK         0.5005 
     28 O          23.7230  -26.5557  -46.8573 O.2       3 UNK        -0.5279 
     29 N          22.8238  -25.3907  -45.1224 N.am      4 UNK        -0.4463 
     30 CA         24.0072  -25.1701  -44.2789 C.3       4 UNK         0.0283 
     31 CB         25.1214  -24.4135  -45.0327 C.3       4 UNK        -0.1875 
     32 C          24.4929  -26.4759  -43.6187 C.2       4 UNK         0.4949 
     33 O          25.6876  -26.6413  -43.3692 O.2       4 UNK        -0.5039 
     34 N          23.5401  -27.3761  -43.3479 N.am      5 UNK        -0.4663 
     35 CA         23.7504  -28.6787  -42.7198 C.3       5 UNK         0.0242 
     36 CB         22.8655  -29.7104  -43.4361 C.3       5 UNK        -0.1982 
     37 C          23.4282  -28.6527  -41.2177 C.2       5 UNK         0.5017 
     38 O          23.8612  -29.5527  -40.4982 O.2       5 UNK        -0.5012 
     39 N          22.6515  -27.6493  -40.7735 N.am      6 UNK        -0.4439 
     40 CA         22.2237  -27.3985  -39.3869 C.3       6 UNK         0.0297 
     41 CB         23.4295  -26.9751  -38.5223 C.3       6 UNK        -0.2006 
     42 C          21.4229  -28.5551  -38.7532 C.2       6 UNK         0.4892 
     43 O          21.4039  -28.6861  -37.5287 O.2       6 UNK        -0.5089 
     44 N          20.7920  -29.3755  -39.6070 N.am      7 UNK        -0.4243 
     45 CA         20.0581  -30.6061  -39.2956 C.3       7 UNK         0.0196 
     46 CB         18.8027  -30.3056  -38.4500 C.3       7 UNK        -0.2007 
     47 C          20.9228  -31.7301  -38.6872 C.2       7 UNK         0.5020 
     48 O          20.3652  -32.6997  -38.1691 O.2       7 UNK        -0.5147 
     49 N          22.2578  -31.6436  -38.8019 N.am      8 UNK        -0.4734 
     50 CA         23.2238  -32.6411  -38.3160 C.3       8 UNK         0.0238 
     51 CB         24.5819  -31.9501  -38.0939 C.3       8 UNK        -0.1912 
     52 C          23.3265  -33.8643  -39.2534 C.2       8 UNK         0.5038 
     53 O          24.4270  -34.2989  -39.5992 O.2       8 UNK        -0.5046 
     54 N          22.1645  -34.3704  -39.6684 N.am      9 UNK        -0.4200 
     55 CA         21.9523  -35.3825  -40.7086 C.3       9 UNK         0.0839 
     56 C          20.5203  -35.9911  -40.6808 C.2       9 UNK         0.5513 
     57 N          19.6529  -35.6415  -39.7353 N.am      9 UNK        -0.7519 
     58 O          20.1901  -36.8201  -41.5246 O.2       9 UNK        -0.4960 
     59 C59        22.3713  -34.8857  -42.1262 C.3       10 UNK        -0.0876 
     60 S60        21.7789  -33.2050  -42.5362 S.3       10 UNK        -0.2414 
     61 C61        20.3062  -33.5492  -43.5367 C.3       10 UNK         0.0169 
     62 H62        22.3613  -24.5878  -40.6888 H         1 UNK         0.0903 
     63 H63        21.7881  -23.2291  -41.6530 H         1 UNK         0.0903 
     64 H64        20.9259  -23.6979  -40.1828 H         1 UNK         0.0903 
     65 H65        18.9030  -24.2085  -41.1336 H         1 UNK         0.3096 
     66 H66        17.3114  -25.3041  -42.1648 H         1 UNK         0.1121 
     67 H67        18.6656  -27.3889  -41.2920 H         1 UNK         0.0849 
     68 H68        19.1292  -27.6323  -42.9540 H         1 UNK         0.0849 
     69 H69        17.6771  -29.8538  -41.3335 H         1 UNK         0.0865 
     70 H70        16.2960  -30.3534  -42.2737 H         1 UNK         0.0865 
     71 H71        18.6490  -32.0214  -42.0388 H         1 UNK         0.1346 
     72 H72        20.4163  -32.2378  -45.9244 H         1 UNK         0.1412 
     73 H73        17.7643  -29.0072  -44.9669 H         1 UNK         0.1426 
     74 H74        20.1400  -30.4981  -47.5097 H         1 UNK         0.0716 
     75 H75        18.3982  -30.4544  -47.6019 H         1 UNK         0.0716 
     76 H76        21.6839  -28.5190  -47.0516 H         1 UNK         0.0695 
     77 H77        20.9522  -28.0876  -45.5210 H         1 UNK         0.0695 
     78 H78        21.3806  -26.1912  -47.9046 H         1 UNK         0.0983 
     79 H79        19.5817  -25.9331  -45.7365 H         1 UNK         0.3095 
     80 H80        19.3906  -22.4401  -45.5008 H         1 UNK         0.0454 
     81 H81        16.9786  -22.8190  -46.0170 H         1 UNK         0.0851 
     82 H82        17.3777  -24.3376  -46.8193 H         1 UNK         0.0851 
     83 H83        17.9619  -22.8177  -47.4717 H         1 UNK         0.0851 
     84 H84        19.0705  -23.4599  -43.5830 H         1 UNK         0.2976 
     85 H85        21.9468  -25.1054  -44.7059 H         1 UNK         0.3116 
     86 H86        23.6754  -24.5283  -43.4614 H         1 UNK         0.0646 
     87 H87        24.7382  -23.5093  -45.5054 H         1 UNK         0.0847 
     88 H88        25.9153  -24.1100  -44.3493 H         1 UNK         0.0847 
     89 H89        25.5820  -25.0286  -45.8059 H         1 UNK         0.0847 
     90 H90        22.5813  -27.1058  -43.5336 H         1 UNK         0.3040 
     91 H91        24.7940  -28.9823  -42.8295 H         1 UNK         0.1015 
     92 H92        21.8015  -29.5081  -43.3025 H         1 UNK         0.0786 
     93 H93        23.0614  -30.7095  -43.0496 H         1 UNK         0.0786 
     94 H94        23.0691  -29.7361  -44.5068 H         1 UNK         0.0786 
     95 H95        22.3055  -26.9911  -41.4650 H         1 UNK         0.3172 
     96 H96        21.5337  -26.5557  -39.4241 H         1 UNK         0.0595 
     97 H97        24.1328  -27.7966  -38.3813 H         1 UNK         0.0839 
     98 H98        23.1091  -26.6488  -37.5321 H         1 UNK         0.0839 
     99 H99        23.9708  -26.1442  -38.9746 H         1 UNK         0.0839 
    100 H100       20.8964  -29.1723  -40.5907 H         1 UNK         0.2998 
    101 H101       19.7205  -30.9934  -40.2560 H         1 UNK         0.0822 
    102 H102       18.1634  -31.1859  -38.3717 H         1 UNK         0.0787 
    103 H103       19.0619  -30.0036  -37.4349 H         1 UNK         0.0787 
    104 H104       18.2037  -29.5101  -38.8930 H         1 UNK         0.0787 
    105 H105       22.6521  -30.8502  -39.2968 H         1 UNK         0.3055 
    106 H106       22.8804  -33.0143  -37.3485 H         1 UNK         0.1106 
    107 H107       24.4895  -31.1002  -37.4174 H         1 UNK         0.0828 
    108 H108       25.3048  -32.6375  -37.6527 H         1 UNK         0.0828 
    109 H109       25.0057  -31.5872  -39.0311 H         1 UNK         0.0828 
    110 H110       21.3252  -33.9281  -39.3119 H         1 UNK         0.2931 
    111 H111       22.6029  -36.2211  -40.4550 H         1 UNK         0.0412 
    112 H112       19.8861  -34.9889  -39.0035 H         1 UNK         0.3472 
    113 H113       18.7376  -36.0642  -39.7449 H         1 UNK         0.3472 
    114 H114       22.0721  -35.5890  -42.9055 H         1 UNK         0.0970 
    115 H115       23.4604  -34.8565  -42.1796 H         1 UNK         0.0970 
    116 H116       20.5933  -34.1208  -44.4207 H         1 UNK         0.0612 
    117 H117       19.6161  -34.1750  -42.9693 H         1 UNK         0.0612 
@<TRIPOS>BOND
     1    1    2 1    
     2    1   62 1    
     3    1   63 1    
     4    1   64 1    
     5    2    3 2    
     6    2    4 am   BACKBONE|DICT|INTERRES
     7    4    5 1    
     8    4   65 1    
     9    5    6 1    
    10    5   25 1    
    11    5   66 1    
    12    6    7 1    
    13    6   67 1    
    14    6   68 1    
    15    7    8 1    
    16    8    9 1    
    17    8   69 1    
    18    8   70 1    
    19    9   10 ar   
    20    9   14 ar   
    21   10   11 ar   
    22   10   71 1    
    23   11   12 ar   
    24   11   61 1    
    25   12   13 ar   
    26   12   72 1    
    27   13   14 ar   
    28   13   15 1    
    29   14   73 1    
    30   15   16 1    
    31   15   74 1    
    32   15   75 1    
    33   16   17 1    
    34   17   18 1    
    35   17   76 1    
    36   17   77 1    
    37   18   19 1    
    38   18   27 1    
    39   18   78 1    
    40   19   20 am   BACKBONE|DICT|INTERRES
    41   19   79 1    
    42   20   21 2    
    43   20   22 1    
    44   22   23 1    
    45   22   24 1    
    46   22   80 1    
    47   23   81 1    
    48   23   82 1    
    49   23   83 1    
    50   24   25 am   BACKBONE|DICT|INTERRES
    51   24   84 1    
    52   25   26 2    
    53   27   28 2    
    54   27   29 am   BACKBONE|DICT|INTERRES
    55   29   30 1    
    56   29   85 1    
    57   30   31 1    
    58   30   32 1    
    59   30   86 1    
    60   31   87 1    
    61   31   88 1    
    62   31   89 1    
    63   32   33 2    
    64   32   34 am   BACKBONE|DICT|INTERRES
    65   34   35 1    
    66   34   90 1    
    67   35   36 1    
    68   35   37 1    
    69   35   91 1    
    70   36   92 1    
    71   36   93 1    
    72   36   94 1    
    73   37   38 2    
    74   37   39 am   BACKBONE|DICT|INTERRES
    75   39   40 1    
    76   39   95 1    
    77   40   41 1    
    78   40   42 1    
    79   40   96 1    
    80   41   97 1    
    81   41   98 1    
    82   41   99 1    
    83   42   43 2    
    84   42   44 am   BACKBONE|DICT|INTERRES
    85   44   45 1    
    86   44  100 1    
    87   45   46 1    
    88   45   47 1    
    89   45  101 1    
    90   46  102 1    
    91   46  103 1    
    92   46  104 1    
    93   47   48 2    
    94   47   49 am   BACKBONE|DICT|INTERRES
    95   49   50 1    
    96   49  105 1    
    97   50   51 1    
    98   50   52 1    
    99   50  106 1    
   100   51  107 1    
   101   51  108 1    
   102   51  109 1    
   103   52   53 2    
   104   52   54 am   BACKBONE|DICT|INTERRES
   105   54   55 1    
   106   54  110 1    
   107   55   56 1    
   108   55   59 1    
   109   55  111 1    
   110   56   57 am   BACKBONE|DICT|INTERRES
   111   56   58 2    
   112   57  112 1    
   113   57  113 1    
   114   59   60 1    
   115   59  114 1    
   116   59  115 1    
   117   60   61 1    
   118   61  116 1    
   119   61  117 1    
@<TRIPOS>SUBSTRUCTURE
     1 UNK         1 GROUP             0       ****    0 ROOT    
