@<TRIPOS>MOLECULE
3R8
117   119    1
SMALL
USER_CHARGES


@<TRIPOS>ATOM
      1 CA         15.7294  -22.9290  -41.9874 C.3       0 UNK        -0.2013 
      2 C          16.0653  -23.6443  -43.2877 C.2       0 UNK         0.4866 
      3 O          16.0070  -23.0333  -44.3555 O.2       0 UNK        -0.5176 
      4 N          16.4079  -24.9363  -43.2068 N.am      1 UNK        -0.4884 
      5 CA         16.8389  -25.7584  -44.3427 C.3       1 UNK         0.0853 
      6 C6         16.7441  -27.2643  -43.9990 C.3       10 UNK        -0.0849 
      7 S7         16.5681  -28.3153  -45.4802 S.3       10 UNK        -0.2776 
      8 C8         16.5592  -29.9796  -44.7351 C.3       10 UNK         0.0316 
      9 C9         17.8431  -30.2525  -43.9657 C.ar      10 UNK        -0.0863 
     10 C10        17.8362  -30.2980  -42.5696 C.ar      10 UNK        -0.1009 
     11 C11        19.0234  -30.4916  -41.8584 C.ar      10 UNK        -0.0712 
     12 C12        20.2286  -30.6226  -42.5604 C.ar      10 UNK        -0.0894 
     13 C13        20.2470  -30.6021  -43.9592 C.ar      10 UNK        -0.0745 
     14 C14        19.0444  -30.4313  -44.6532 C.ar      10 UNK        -0.0972 
     15 C15        21.5583  -30.8088  -44.7126 C.3       10 UNK         0.0209 
     16 S16        21.7454  -29.6949  -46.1476 S.3       10 UNK        -0.2568 
     17 C17        22.9283  -28.4432  -45.5413 C.3       10 UNK        -0.0983 
     18 CA         22.3078  -27.2298  -44.7938 C.3       3 UNK         0.0876 
     19 N          21.1264  -26.6846  -45.4669 N.am      3 UNK        -0.4424 
     20 C          21.1062  -25.5628  -46.1940 C.2       2 UNK         0.4918 
     21 O          22.0941  -24.8543  -46.3905 O.2       2 UNK        -0.4875 
     22 CA         19.7571  -25.1409  -46.8080 C.3       2 UNK         0.0481 
     23 CB         19.6748  -25.6144  -48.2681 C.3       2 UNK        -0.1831 
     24 N          18.5509  -25.5835  -46.0946 N.am      2 UNK        -0.4498 
     25 C          18.2591  -25.3589  -44.8052 C.2       1 UNK         0.5027 
     26 O          19.0598  -24.8857  -43.9936 O.2       1 UNK        -0.4969 
     27 C          22.0513  -27.4769  -43.2939 C.2       3 UNK         0.5005 
     28 O          22.8059  -28.2234  -42.6679 O.2       3 UNK        -0.5279 
     29 N          21.0438  -26.8096  -42.7044 N.am      4 UNK        -0.4463 
     30 CA         20.6910  -26.9413  -41.2832 C.3       4 UNK         0.0283 
     31 CB         19.4180  -26.1371  -40.9792 C.3       4 UNK        -0.1875 
     32 C          21.8186  -26.5543  -40.3079 C.2       4 UNK         0.4949 
     33 O          21.8981  -27.1257  -39.2211 O.2       4 UNK        -0.5039 
     34 N          22.6854  -25.6207  -40.7241 N.am      5 UNK        -0.4663 
     35 CA         23.8826  -25.2110  -39.9854 C.3       5 UNK         0.0242 
     36 CB         24.3697  -23.8591  -40.5319 C.3       5 UNK        -0.1982 
     37 C          25.0197  -26.2499  -40.0338 C.2       5 UNK         0.5017 
     38 O          25.8529  -26.2607  -39.1271 O.2       5 UNK        -0.5012 
     39 N          25.0477  -27.0887  -41.0799 N.am      6 UNK        -0.4439 
     40 CA         26.0338  -28.1583  -41.2613 C.3       6 UNK         0.0297 
     41 CB         26.2861  -28.3692  -42.7630 C.3       6 UNK        -0.2006 
     42 C          25.5898  -29.4758  -40.6028 C.2       6 UNK         0.4892 
     43 O          26.4503  -30.2854  -40.2544 O.2       6 UNK        -0.5089 
     44 N          24.2706  -29.6556  -40.4416 N.am      7 UNK        -0.4243 
     45 CA         23.5898  -30.8370  -39.9061 C.3       7 UNK         0.0196 
     46 CB         24.0050  -31.1255  -38.4449 C.3       7 UNK        -0.2007 
     47 C          23.7071  -32.0424  -40.8600 C.2       7 UNK         0.5020 
     48 O          23.7006  -31.8426  -42.0749 O.2       7 UNK        -0.5147 
     49 N          23.7496  -33.2661  -40.3069 N.am      8 UNK        -0.4734 
     50 CA         23.6277  -34.5543  -41.0136 C.3       8 UNK         0.0238 
     51 CB         24.8333  -34.8027  -41.9462 C.3       8 UNK        -0.1912 
     52 C          22.2663  -34.6656  -41.7316 C.2       8 UNK         0.5038 
     53 O          22.2035  -34.9692  -42.9242 O.2       8 UNK        -0.5046 
     54 N          21.2084  -34.3559  -40.9728 N.am      9 UNK        -0.4200 
     55 CA         19.8311  -34.1322  -41.4380 C.3       9 UNK         0.0839 
     56 C          19.0775  -35.3934  -41.9508 C.2       9 UNK         0.5513 
     57 N          19.5867  -36.6028  -41.7501 N.am      9 UNK        -0.7519 
     58 O          18.0070  -35.2705  -42.5401 O.2       9 UNK        -0.4960 
     59 C59        18.9918  -33.3868  -40.3614 C.3       10 UNK        -0.0876 
     60 S60        19.8645  -31.9585  -39.6200 S.3       10 UNK        -0.2414 
     61 C61        18.9834  -30.5346  -40.3338 C.3       10 UNK         0.0169 
     62 H62        16.4059  -22.0880  -41.8375 H         1 UNK         0.0903 
     63 H63        14.7103  -22.5449  -42.0225 H         1 UNK         0.0903 
     64 H64        15.8136  -23.5892  -41.1243 H         1 UNK         0.0903 
     65 H65        16.4597  -25.3757  -42.2994 H         1 UNK         0.3096 
     66 H66        16.1483  -25.5468  -45.1630 H         1 UNK         0.1121 
     67 H67        17.6084  -27.5852  -43.4157 H         1 UNK         0.0849 
     68 H68        15.8704  -27.4543  -43.3730 H         1 UNK         0.0849 
     69 H69        15.6866  -30.0807  -44.0878 H         1 UNK         0.0865 
     70 H70        16.4432  -30.7243  -45.5239 H         1 UNK         0.0865 
     71 H71        16.9049  -30.1683  -42.0352 H         1 UNK         0.1346 
     72 H72        21.1531  -30.7591  -42.0174 H         1 UNK         0.1412 
     73 H73        19.0415  -30.4135  -45.7344 H         1 UNK         0.1426 
     74 H74        21.5912  -31.8405  -45.0644 H         1 UNK         0.0716 
     75 H75        22.4108  -30.6868  -44.0441 H         1 UNK         0.0716 
     76 H76        23.7089  -28.9309  -44.9560 H         1 UNK         0.0695 
     77 H77        23.4436  -28.0658  -46.4257 H         1 UNK         0.0695 
     78 H78        23.0843  -26.4621  -44.7762 H         1 UNK         0.0983 
     79 H79        20.2775  -27.2250  -45.3788 H         1 UNK         0.3095 
     80 H80        19.7380  -24.0493  -46.8067 H         1 UNK         0.0454 
     81 H81        20.5414  -25.2775  -48.8391 H         1 UNK         0.0851 
     82 H82        19.6435  -26.7026  -48.3372 H         1 UNK         0.0851 
     83 H83        18.7900  -25.2190  -48.7671 H         1 UNK         0.0851 
     84 H84        17.8460  -26.0327  -46.6627 H         1 UNK         0.2976 
     85 H85        20.4860  -26.1635  -43.2548 H         1 UNK         0.3116 
     86 H86        20.4753  -27.9952  -41.1107 H         1 UNK         0.0646 
     87 H87        19.1460  -26.2177  -39.9258 H         1 UNK         0.0847 
     88 H88        18.5712  -26.5040  -41.5561 H         1 UNK         0.0847 
     89 H89        19.5457  -25.0775  -41.2039 H         1 UNK         0.0847 
     90 H90        22.5295  -25.1900  -41.6240 H         1 UNK         0.3040 
     91 H91        23.6102  -25.0773  -38.9358 H         1 UNK         0.1015 
     92 H92        23.6016  -23.0915  -40.4351 H         1 UNK         0.0786 
     93 H93        24.6504  -23.9247  -41.5839 H         1 UNK         0.0786 
     94 H94        25.2452  -23.5091  -39.9827 H         1 UNK         0.0786 
     95 H95        24.2812  -27.0685  -41.7420 H         1 UNK         0.3172 
     96 H96        26.9791  -27.8591  -40.8034 H         1 UNK         0.0595 
     97 H97        27.0678  -29.1130  -42.9235 H         1 UNK         0.0839 
     98 H98        26.6104  -27.4481  -43.2473 H         1 UNK         0.0839 
     99 H99        25.3930  -28.7254  -43.2761 H         1 UNK         0.0839 
    100 H100       23.6617  -28.9754  -40.8822 H         1 UNK         0.2998 
    101 H101       22.5323  -30.5713  -39.8934 H         1 UNK         0.0822 
    102 H102       23.9593  -30.2194  -37.8404 H         1 UNK         0.0787 
    103 H103       23.3348  -31.8481  -37.9781 H         1 UNK         0.0787 
    104 H104       25.0198  -31.5186  -38.3754 H         1 UNK         0.0787 
    105 H105       23.7701  -33.3198  -39.2977 H         1 UNK         0.3055 
    106 H106       23.6383  -35.3360  -40.2520 H         1 UNK         0.1106 
    107 H107       24.8604  -34.0984  -42.7779 H         1 UNK         0.0828 
    108 H108       25.7762  -34.7195  -41.4061 H         1 UNK         0.0828 
    109 H109       24.7919  -35.8048  -42.3747 H         1 UNK         0.0828 
    110 H110       21.3718  -34.1131  -40.0074 H         1 UNK         0.2931 
    111 H111       19.9088  -33.4697  -42.3018 H         1 UNK         0.0412 
    112 H112       20.4693  -36.7118  -41.2770 H         1 UNK         0.3472 
    113 H113       19.0899  -37.4122  -42.0883 H         1 UNK         0.3472 
    114 H114       18.0429  -33.0520  -40.7850 H         1 UNK         0.0970 
    115 H115       18.7320  -34.0678  -39.5488 H         1 UNK         0.0970 
    116 H116       19.4245  -29.6218  -39.9350 H         1 UNK         0.0612 
    117 H117       17.9535  -30.5569  -39.9742 H         1 UNK         0.0612 
@<TRIPOS>BOND
     1    1    2 1    
     2    1   62 1    
     3    1   63 1    
     4    1   64 1    
     5    2    3 2    
     6    2    4 am   BACKBONE|DICT|INTERRES
     7    4    5 1    
     8    4   65 1    
     9    5    6 1    
    10    5   25 1    
    11    5   66 1    
    12    6    7 1    
    13    6   67 1    
    14    6   68 1    
    15    7    8 1    
    16    8    9 1    
    17    8   69 1    
    18    8   70 1    
    19    9   10 ar   
    20    9   14 ar   
    21   10   11 ar   
    22   10   71 1    
    23   11   12 ar   
    24   11   61 1    
    25   12   13 ar   
    26   12   72 1    
    27   13   14 ar   
    28   13   15 1    
    29   14   73 1    
    30   15   16 1    
    31   15   74 1    
    32   15   75 1    
    33   16   17 1    
    34   17   18 1    
    35   17   76 1    
    36   17   77 1    
    37   18   19 1    
    38   18   27 1    
    39   18   78 1    
    40   19   20 am   BACKBONE|DICT|INTERRES
    41   19   79 1    
    42   20   21 2    
    43   20   22 1    
    44   22   23 1    
    45   22   24 1    
    46   22   80 1    
    47   23   81 1    
    48   23   82 1    
    49   23   83 1    
    50   24   25 am   BACKBONE|DICT|INTERRES
    51   24   84 1    
    52   25   26 2    
    53   27   28 2    
    54   27   29 am   BACKBONE|DICT|INTERRES
    55   29   30 1    
    56   29   85 1    
    57   30   31 1    
    58   30   32 1    
    59   30   86 1    
    60   31   87 1    
    61   31   88 1    
    62   31   89 1    
    63   32   33 2    
    64   32   34 am   BACKBONE|DICT|INTERRES
    65   34   35 1    
    66   34   90 1    
    67   35   36 1    
    68   35   37 1    
    69   35   91 1    
    70   36   92 1    
    71   36   93 1    
    72   36   94 1    
    73   37   38 2    
    74   37   39 am   BACKBONE|DICT|INTERRES
    75   39   40 1    
    76   39   95 1    
    77   40   41 1    
    78   40   42 1    
    79   40   96 1    
    80   41   97 1    
    81   41   98 1    
    82   41   99 1    
    83   42   43 2    
    84   42   44 am   BACKBONE|DICT|INTERRES
    85   44   45 1    
    86   44  100 1    
    87   45   46 1    
    88   45   47 1    
    89   45  101 1    
    90   46  102 1    
    91   46  103 1    
    92   46  104 1    
    93   47   48 2    
    94   47   49 am   BACKBONE|DICT|INTERRES
    95   49   50 1    
    96   49  105 1    
    97   50   51 1    
    98   50   52 1    
    99   50  106 1    
   100   51  107 1    
   101   51  108 1    
   102   51  109 1    
   103   52   53 2    
   104   52   54 am   BACKBONE|DICT|INTERRES
   105   54   55 1    
   106   54  110 1    
   107   55   56 1    
   108   55   59 1    
   109   55  111 1    
   110   56   57 am   BACKBONE|DICT|INTERRES
   111   56   58 2    
   112   57  112 1    
   113   57  113 1    
   114   59   60 1    
   115   59  114 1    
   116   59  115 1    
   117   60   61 1    
   118   61  116 1    
   119   61  117 1    
@<TRIPOS>SUBSTRUCTURE
     1 UNK         1 GROUP             0       ****    0 ROOT    
