@<TRIPOS>MOLECULE
3R8
117   119    1
SMALL
USER_CHARGES


@<TRIPOS>ATOM
      1 CA         11.8744  -27.3760  -42.2262 C.3       0 UNK        -0.2013 
      2 C          13.0258  -26.5761  -42.8176 C.2       0 UNK         0.4866 
      3 O          13.0924  -25.3631  -42.6164 O.2       0 UNK        -0.5176 
      4 N          13.9198  -27.2467  -43.5536 N.am      1 UNK        -0.4884 
      5 CA         15.1280  -26.6780  -44.1554 C.3       1 UNK         0.0853 
      6 C6         15.4113  -27.2783  -45.5637 C.3       10 UNK        -0.0849 
      7 S7         15.4150  -29.1076  -45.6320 S.3       10 UNK        -0.2776 
      8 C8         16.5872  -29.4247  -46.9873 C.3       10 UNK         0.0316 
      9 C9         18.0420  -29.3275  -46.5448 C.ar      10 UNK        -0.0863 
     10 C10        18.6069  -30.3491  -45.7741 C.ar      10 UNK        -0.1009 
     11 C11        19.9647  -30.3202  -45.4433 C.ar      10 UNK        -0.0712 
     12 C12        20.7596  -29.2599  -45.8865 C.ar      10 UNK        -0.0894 
     13 C13        20.2072  -28.2270  -46.6493 C.ar      10 UNK        -0.0745 
     14 C14        18.8444  -28.2611  -46.9664 C.ar      10 UNK        -0.0972 
     15 C15        21.0949  -27.1154  -47.1955 C.3       10 UNK         0.0209 
     16 S16        21.2257  -25.6910  -46.0686 S.3       10 UNK        -0.2568 
     17 C17        22.4740  -26.2562  -44.8610 C.3       10 UNK        -0.0983 
     18 CA         21.9591  -26.2245  -43.3996 C.3       3 UNK         0.0876 
     19 N          20.8377  -27.1327  -43.1746 N.am      3 UNK        -0.4424 
     20 C          19.5628  -26.7547  -43.0492 C.2       2 UNK         0.4918 
     21 O          19.1871  -25.5820  -43.1122 O.2       2 UNK        -0.4875 
     22 CA         18.5563  -27.8871  -42.7920 C.3       2 UNK         0.0481 
     23 CB         18.4026  -28.1738  -41.2867 C.3       2 UNK        -0.1831 
     24 N          17.2672  -27.6589  -43.4510 N.am      2 UNK        -0.4498 
     25 C          16.3010  -26.7776  -43.1552 C.2       1 UNK         0.5027 
     26 O          16.2958  -26.0608  -42.1524 O.2       1 UNK        -0.4969 
     27 C          23.0727  -26.6333  -42.4280 C.2       3 UNK         0.5005 
     28 O          23.3270  -27.8314  -42.2695 O.2       3 UNK        -0.5279 
     29 N          23.7478  -25.6424  -41.8284 N.am      4 UNK        -0.4463 
     30 CA         24.8215  -25.8220  -40.8409 C.3       4 UNK         0.0283 
     31 CB         25.1944  -24.4549  -40.2452 C.3       4 UNK        -0.1875 
     32 C          26.0779  -26.5322  -41.3788 C.2       4 UNK         0.4949 
     33 O          26.8473  -27.0726  -40.5854 O.2       4 UNK        -0.5039 
     34 N          26.2561  -26.5404  -42.7075 N.am      5 UNK        -0.4663 
     35 CA         27.2924  -27.3076  -43.4035 C.3       5 UNK         0.0242 
     36 CB         27.3608  -26.8478  -44.8689 C.3       5 UNK        -0.1982 
     37 C          27.0688  -28.8302  -43.3264 C.2       5 UNK         0.5017 
     38 O          28.0442  -29.5802  -43.3782 O.2       5 UNK        -0.5012 
     39 N          25.8027  -29.2524  -43.2021 N.am      6 UNK        -0.4439 
     40 CA         25.4007  -30.6440  -43.0023 C.3       6 UNK         0.0297 
     41 CB         24.1523  -30.9405  -43.8457 C.3       6 UNK        -0.2006 
     42 C          25.1347  -30.9209  -41.5161 C.2       6 UNK         0.4892 
     43 O          25.6062  -31.9351  -41.0009 O.2       6 UNK        -0.5089 
     44 N          24.3942  -30.0130  -40.8602 N.am      7 UNK        -0.4243 
     45 CA         24.0300  -29.9506  -39.4370 C.3       7 UNK         0.0196 
     46 CB         25.2793  -29.8132  -38.5465 C.3       7 UNK        -0.2007 
     47 C          23.1206  -31.0847  -38.9301 C.2       7 UNK         0.5020 
     48 O          22.1716  -30.8055  -38.1977 O.2       7 UNK        -0.5147 
     49 N          23.4075  -32.3337  -39.3175 N.am      8 UNK        -0.4734 
     50 CA         22.7137  -33.5542  -38.8846 C.3       8 UNK         0.0238 
     51 CB         23.4467  -34.7774  -39.4581 C.3       8 UNK        -0.1912 
     52 C          21.2194  -33.6030  -39.2508 C.2       8 UNK         0.5038 
     53 O          20.4457  -34.2504  -38.5441 O.2       8 UNK        -0.5046 
     54 N          20.8461  -32.9107  -40.3321 N.am      9 UNK        -0.4200 
     55 CA         19.4606  -32.6784  -40.7604 C.3       9 UNK         0.0839 
     56 C          18.6793  -31.6359  -39.9078 C.2       9 UNK         0.5513 
     57 N          19.3043  -30.9057  -38.9908 N.am      9 UNK        -0.7519 
     58 O          17.4690  -31.5041  -40.0692 O.2       9 UNK        -0.4960 
     59 C59        19.3767  -32.3824  -42.2823 C.3       10 UNK        -0.0876 
     60 S60        20.5556  -31.1096  -42.8581 S.3       10 UNK        -0.2414 
     61 C61        20.5889  -31.4532  -44.6457 C.3       10 UNK         0.0169 
     62 H62        11.9271  -28.4301  -42.4978 H         1 UNK         0.0903 
     63 H63        11.8884  -27.3052  -41.1389 H         1 UNK         0.0903 
     64 H64        10.9224  -26.9822  -42.5811 H         1 UNK         0.0903 
     65 H65        13.8157  -28.2445  -43.6793 H         1 UNK         0.3096 
     66 H66        14.9734  -25.6069  -44.3067 H         1 UNK         0.1121 
     67 H67        14.6400  -26.9342  -46.2546 H         1 UNK         0.0849 
     68 H68        16.3474  -26.8839  -45.9640 H         1 UNK         0.0849 
     69 H69        16.4044  -30.4280  -47.3751 H         1 UNK         0.0865 
     70 H70        16.3821  -28.7442  -47.8155 H         1 UNK         0.0865 
     71 H71        17.9932  -31.1792  -45.4510 H         1 UNK         0.1346 
     72 H72        21.8146  -29.2528  -45.6524 H         1 UNK         0.1412 
     73 H73        18.4193  -27.4753  -47.5761 H         1 UNK         0.1426 
     74 H74        22.0909  -27.4993  -47.4219 H         1 UNK         0.0716 
     75 H75        20.6917  -26.7630  -48.1460 H         1 UNK         0.0716 
     76 H76        22.8233  -27.2549  -45.1257 H         1 UNK         0.0695 
     77 H77        23.3402  -25.6009  -44.9693 H         1 UNK         0.0695 
     78 H78        21.6627  -25.2014  -43.1571 H         1 UNK         0.0983 
     79 H79        21.0930  -28.1033  -43.0499 H         1 UNK         0.3095 
     80 H80        18.9460  -28.7874  -43.2624 H         1 UNK         0.0454 
     81 H81        18.1230  -27.2820  -40.7256 H         1 UNK         0.0851 
     82 H82        17.6464  -28.9366  -41.1044 H         1 UNK         0.0851 
     83 H83        19.3402  -28.5383  -40.8654 H         1 UNK         0.0851 
     84 H84        17.1316  -28.1997  -44.2967 H         1 UNK         0.2976 
     85 H85        23.4872  -24.6871  -42.0309 H         1 UNK         0.3116 
     86 H86        24.4251  -26.4464  -40.0372 H         1 UNK         0.0646 
     87 H87        25.9686  -24.5588  -39.4833 H         1 UNK         0.0847 
     88 H88        24.3371  -23.9809  -39.7670 H         1 UNK         0.0847 
     89 H89        25.5771  -23.7730  -41.0056 H         1 UNK         0.0847 
     90 H90        25.5941  -26.0385  -43.2805 H         1 UNK         0.3040 
     91 H91        28.2525  -27.0932  -42.9283 H         1 UNK         0.1015 
     92 H92        27.5919  -25.7849  -44.9414 H         1 UNK         0.0786 
     93 H93        26.4211  -27.0254  -45.3936 H         1 UNK         0.0786 
     94 H94        28.1420  -27.3846  -45.4093 H         1 UNK         0.0786 
     95 H95        25.0714  -28.5565  -43.1121 H         1 UNK         0.3172 
     96 H96        26.1942  -31.3179  -43.3324 H         1 UNK         0.0595 
     97 H97        23.7972  -31.9577  -43.6747 H         1 UNK         0.0839 
     98 H98        24.3638  -30.8449  -44.9106 H         1 UNK         0.0839 
     99 H99        23.3335  -30.2615  -43.6075 H         1 UNK         0.0839 
    100 H100       24.0112  -29.2463  -41.4120 H         1 UNK         0.2998 
    101 H101       23.4551  -29.0287  -39.3327 H         1 UNK         0.0822 
    102 H102       25.8783  -28.9501  -38.8359 H         1 UNK         0.0787 
    103 H103       24.9993  -29.6769  -37.5010 H         1 UNK         0.0787 
    104 H104       25.9173  -30.6958  -38.5987 H         1 UNK         0.0787 
    105 H105       24.2213  -32.4474  -39.9194 H         1 UNK         0.3055 
    106 H106       22.7750  -33.5951  -37.7949 H         1 UNK         0.1106 
    107 H107       22.9720  -35.7055  -39.1361 H         1 UNK         0.0828 
    108 H108       23.4475  -34.7718  -40.5489 H         1 UNK         0.0828 
    109 H109       24.4834  -34.8125  -39.1224 H         1 UNK         0.0828 
    110 H110       21.5506  -32.3970  -40.8408 H         1 UNK         0.2931 
    111 H111       18.9244  -33.6166  -40.6044 H         1 UNK         0.0412 
    112 H112       18.7708  -30.2499  -38.4434 H         1 UNK         0.3472 
    113 H113       20.2996  -31.0042  -38.8219 H         1 UNK         0.3472 
    114 H114       18.3662  -32.0943  -42.5795 H         1 UNK         0.0970 
    115 H115       19.5863  -33.3085  -42.8193 H         1 UNK         0.0970 
    116 H116       20.0778  -32.3898  -44.8715 H         1 UNK         0.0612 
    117 H117       21.6221  -31.6004  -44.9602 H         1 UNK         0.0612 
@<TRIPOS>BOND
     1    1    2 1    
     2    1   62 1    
     3    1   63 1    
     4    1   64 1    
     5    2    3 2    
     6    2    4 am   BACKBONE|DICT|INTERRES
     7    4    5 1    
     8    4   65 1    
     9    5    6 1    
    10    5   25 1    
    11    5   66 1    
    12    6    7 1    
    13    6   67 1    
    14    6   68 1    
    15    7    8 1    
    16    8    9 1    
    17    8   69 1    
    18    8   70 1    
    19    9   10 ar   
    20    9   14 ar   
    21   10   11 ar   
    22   10   71 1    
    23   11   12 ar   
    24   11   61 1    
    25   12   13 ar   
    26   12   72 1    
    27   13   14 ar   
    28   13   15 1    
    29   14   73 1    
    30   15   16 1    
    31   15   74 1    
    32   15   75 1    
    33   16   17 1    
    34   17   18 1    
    35   17   76 1    
    36   17   77 1    
    37   18   19 1    
    38   18   27 1    
    39   18   78 1    
    40   19   20 am   BACKBONE|DICT|INTERRES
    41   19   79 1    
    42   20   21 2    
    43   20   22 1    
    44   22   23 1    
    45   22   24 1    
    46   22   80 1    
    47   23   81 1    
    48   23   82 1    
    49   23   83 1    
    50   24   25 am   BACKBONE|DICT|INTERRES
    51   24   84 1    
    52   25   26 2    
    53   27   28 2    
    54   27   29 am   BACKBONE|DICT|INTERRES
    55   29   30 1    
    56   29   85 1    
    57   30   31 1    
    58   30   32 1    
    59   30   86 1    
    60   31   87 1    
    61   31   88 1    
    62   31   89 1    
    63   32   33 2    
    64   32   34 am   BACKBONE|DICT|INTERRES
    65   34   35 1    
    66   34   90 1    
    67   35   36 1    
    68   35   37 1    
    69   35   91 1    
    70   36   92 1    
    71   36   93 1    
    72   36   94 1    
    73   37   38 2    
    74   37   39 am   BACKBONE|DICT|INTERRES
    75   39   40 1    
    76   39   95 1    
    77   40   41 1    
    78   40   42 1    
    79   40   96 1    
    80   41   97 1    
    81   41   98 1    
    82   41   99 1    
    83   42   43 2    
    84   42   44 am   BACKBONE|DICT|INTERRES
    85   44   45 1    
    86   44  100 1    
    87   45   46 1    
    88   45   47 1    
    89   45  101 1    
    90   46  102 1    
    91   46  103 1    
    92   46  104 1    
    93   47   48 2    
    94   47   49 am   BACKBONE|DICT|INTERRES
    95   49   50 1    
    96   49  105 1    
    97   50   51 1    
    98   50   52 1    
    99   50  106 1    
   100   51  107 1    
   101   51  108 1    
   102   51  109 1    
   103   52   53 2    
   104   52   54 am   BACKBONE|DICT|INTERRES
   105   54   55 1    
   106   54  110 1    
   107   55   56 1    
   108   55   59 1    
   109   55  111 1    
   110   56   57 am   BACKBONE|DICT|INTERRES
   111   56   58 2    
   112   57  112 1    
   113   57  113 1    
   114   59   60 1    
   115   59  114 1    
   116   59  115 1    
   117   60   61 1    
   118   61  116 1    
   119   61  117 1    
@<TRIPOS>SUBSTRUCTURE
     1 UNK         1 GROUP             0       ****    0 ROOT    
